version 2
run General-0-20150108-17:06:57-12096
attr configname General
attr datetime 20150108-17:06:57
attr experiment General
attr inifile omnetpp.ini
attr iterationvars $0=0
attr iterationvars2 "$0=0, $repetition=0"
attr measurement $0=0
attr network WAVETest
attr processid 12096
attr repetition 0
attr replication #0
attr resultdir results
attr runnumber 0
attr seedset 0

scalar WAVETest.node[0].appl 	ReceivedUnicasts 	0
scalar WAVETest.node[0].appl 	ReceivedBroadcasts 	0
scalar WAVETest.node[0].appl 	SentUnicasts 	50
scalar WAVETest.node[0].appl 	SentBroadcasts 	0
statistic WAVETest.node[0].appl 	distance:stats
field count 0
field mean 0
field stddev -nan
field sum 0
field sqrsum 0
field min 0
field max 0
attr interpolationmode  none
attr source  distance
attr title  "distance, stats"
statistic WAVETest.node[0].appl 	delay:stats
field count 0
field mean 0
field stddev -nan
field sum 0
field sqrsum 0
field min 0
field max 0
attr interpolationmode  none
attr source  delay
attr title  "delay time, stats"
statistic WAVETest.node[0].appl 	hopLimit:stats
field count 0
field mean 0
field stddev -nan
field sum 0
field sqrsum 0
field min 0
field max 0
attr interpolationmode  none
attr source  hopLimit
attr title  "hop limit, stats"
scalar WAVETest.node[0].nic.phy80211p 	busyTime 	8.6428808882961e-05
scalar WAVETest.node[0].nic.mac1609_4 	ReceivedUnicastPackets 	0
scalar WAVETest.node[0].nic.mac1609_4 	ReceivedBroadcasts 	209
scalar WAVETest.node[0].nic.mac1609_4 	SentPackets 	161
scalar WAVETest.node[0].nic.mac1609_4 	SNIRLostPackets 	0
scalar WAVETest.node[0].nic.mac1609_4 	RXTXLostPackets 	0
scalar WAVETest.node[0].nic.mac1609_4 	TotalLostPackets 	0
scalar WAVETest.node[0].nic.mac1609_4 	DroppedPacketsInMac 	0
scalar WAVETest.node[0].nic.mac1609_4 	TooLittleTime 	0
scalar WAVETest.node[0].nic.mac1609_4 	TimesIntoBackoff 	161
scalar WAVETest.node[0].nic.mac1609_4 	SlotsBackoff 	611
scalar WAVETest.node[0].nic.mac1609_4 	NumInternalContention 	0
scalar WAVETest.node[0].nic.mac1609_4 	totalBusyTime 	0.048040999601
scalar WAVETest.node[0].veinsmobility 	startTime 	0.1
scalar WAVETest.node[0].veinsmobility 	totalTime 	299.9
scalar WAVETest.node[0].veinsmobility 	stopTime 	300
scalar WAVETest.node[0].veinsmobility 	minSpeed 	0.48627966244239
scalar WAVETest.node[0].veinsmobility 	maxSpeed 	29.99995332153
scalar WAVETest.node[0].veinsmobility 	totalDistance 	8844.8917767782
scalar WAVETest.node[0].veinsmobility 	totalCO2Emission 	1961.1150915138
scalar WAVETest.node[1].appl 	ReceivedUnicasts 	0
scalar WAVETest.node[1].appl 	ReceivedBroadcasts 	0
scalar WAVETest.node[1].appl 	SentUnicasts 	0
scalar WAVETest.node[1].appl 	SentBroadcasts 	0
statistic WAVETest.node[1].appl 	distance:stats
field count 0
field mean 0
field stddev -nan
field sum 0
field sqrsum 0
field min 0
field max 0
attr interpolationmode  none
attr source  distance
attr title  "distance, stats"
statistic WAVETest.node[1].appl 	delay:stats
field count 0
field mean 0
field stddev -nan
field sum 0
field sqrsum 0
field min 0
field max 0
attr interpolationmode  none
attr source  delay
attr title  "delay time, stats"
statistic WAVETest.node[1].appl 	hopLimit:stats
field count 0
field mean 0
field stddev -nan
field sum 0
field sqrsum 0
field min 0
field max 0
attr interpolationmode  none
attr source  hopLimit
attr title  "hop limit, stats"
scalar WAVETest.node[1].nic.phy80211p 	busyTime 	0.00013713122978298
scalar WAVETest.node[1].nic.mac1609_4 	ReceivedUnicastPackets 	0
scalar WAVETest.node[1].nic.mac1609_4 	ReceivedBroadcasts 	315
scalar WAVETest.node[1].nic.mac1609_4 	SentPackets 	60
scalar WAVETest.node[1].nic.mac1609_4 	SNIRLostPackets 	0
scalar WAVETest.node[1].nic.mac1609_4 	RXTXLostPackets 	0
scalar WAVETest.node[1].nic.mac1609_4 	TotalLostPackets 	0
scalar WAVETest.node[1].nic.mac1609_4 	DroppedPacketsInMac 	0
scalar WAVETest.node[1].nic.mac1609_4 	TooLittleTime 	0
scalar WAVETest.node[1].nic.mac1609_4 	TimesIntoBackoff 	60
scalar WAVETest.node[1].nic.mac1609_4 	SlotsBackoff 	178
scalar WAVETest.node[1].nic.mac1609_4 	NumInternalContention 	0
scalar WAVETest.node[1].nic.mac1609_4 	totalBusyTime 	0.054539999546
scalar WAVETest.node[1].veinsmobility 	startTime 	5.1
scalar WAVETest.node[1].veinsmobility 	totalTime 	294.9
scalar WAVETest.node[1].veinsmobility 	stopTime 	300
scalar WAVETest.node[1].veinsmobility 	minSpeed 	0.485449505219
scalar WAVETest.node[1].veinsmobility 	maxSpeed 	29.999986162409
scalar WAVETest.node[1].veinsmobility 	totalDistance 	8699.2396270382
scalar WAVETest.node[1].veinsmobility 	totalCO2Emission 	1945.15757931
scalar WAVETest.node[10].appl 	ReceivedUnicasts 	0
scalar WAVETest.node[10].appl 	ReceivedBroadcasts 	0
scalar WAVETest.node[10].appl 	SentUnicasts 	0
scalar WAVETest.node[10].appl 	SentBroadcasts 	0
statistic WAVETest.node[10].appl 	distance:stats
field count 0
field mean 0
field stddev -nan
field sum 0
field sqrsum 0
field min 0
field max 0
attr interpolationmode  none
attr source  distance
attr title  "distance, stats"
statistic WAVETest.node[10].appl 	delay:stats
field count 0
field mean 0
field stddev -nan
field sum 0
field sqrsum 0
field min 0
field max 0
attr interpolationmode  none
attr source  delay
attr title  "delay time, stats"
statistic WAVETest.node[10].appl 	hopLimit:stats
field count 0
field mean 0
field stddev -nan
field sum 0
field sqrsum 0
field min 0
field max 0
attr interpolationmode  none
attr source  hopLimit
attr title  "hop limit, stats"
scalar WAVETest.node[10].nic.phy80211p 	busyTime 	0.00015894357610644
scalar WAVETest.node[10].nic.mac1609_4 	ReceivedUnicastPackets 	0
scalar WAVETest.node[10].nic.mac1609_4 	ReceivedBroadcasts 	328
scalar WAVETest.node[10].nic.mac1609_4 	SentPackets 	51
scalar WAVETest.node[10].nic.mac1609_4 	SNIRLostPackets 	0
scalar WAVETest.node[10].nic.mac1609_4 	RXTXLostPackets 	0
scalar WAVETest.node[10].nic.mac1609_4 	TotalLostPackets 	0
scalar WAVETest.node[10].nic.mac1609_4 	DroppedPacketsInMac 	0
scalar WAVETest.node[10].nic.mac1609_4 	TooLittleTime 	0
scalar WAVETest.node[10].nic.mac1609_4 	TimesIntoBackoff 	101
scalar WAVETest.node[10].nic.mac1609_4 	SlotsBackoff 	184
scalar WAVETest.node[10].nic.mac1609_4 	NumInternalContention 	0
scalar WAVETest.node[10].nic.mac1609_4 	totalBusyTime 	0.048410999597
scalar WAVETest.node[10].veinsmobility 	startTime 	50.1
scalar WAVETest.node[10].veinsmobility 	totalTime 	249.9
scalar WAVETest.node[10].veinsmobility 	stopTime 	300
scalar WAVETest.node[10].veinsmobility 	minSpeed 	0.48245398792205
scalar WAVETest.node[10].veinsmobility 	maxSpeed 	29.999949976453
scalar WAVETest.node[10].veinsmobility 	totalDistance 	7356.4007472643
scalar WAVETest.node[10].veinsmobility 	totalCO2Emission 	1648.8677470051
scalar WAVETest.node[11].appl 	ReceivedUnicasts 	0
scalar WAVETest.node[11].appl 	ReceivedBroadcasts 	0
scalar WAVETest.node[11].appl 	SentUnicasts 	0
scalar WAVETest.node[11].appl 	SentBroadcasts 	0
statistic WAVETest.node[11].appl 	distance:stats
field count 0
field mean 0
field stddev -nan
field sum 0
field sqrsum 0
field min 0
field max 0
attr interpolationmode  none
attr source  distance
attr title  "distance, stats"
statistic WAVETest.node[11].appl 	delay:stats
field count 0
field mean 0
field stddev -nan
field sum 0
field sqrsum 0
field min 0
field max 0
attr interpolationmode  none
attr source  delay
attr title  "delay time, stats"
statistic WAVETest.node[11].appl 	hopLimit:stats
field count 0
field mean 0
field stddev -nan
field sum 0
field sqrsum 0
field min 0
field max 0
attr interpolationmode  none
attr source  hopLimit
attr title  "hop limit, stats"
scalar WAVETest.node[11].nic.phy80211p 	busyTime 	0.00016169865116374
scalar WAVETest.node[11].nic.mac1609_4 	ReceivedUnicastPackets 	9
scalar WAVETest.node[11].nic.mac1609_4 	ReceivedBroadcasts 	317
scalar WAVETest.node[11].nic.mac1609_4 	SentPackets 	68
scalar WAVETest.node[11].nic.mac1609_4 	SNIRLostPackets 	0
scalar WAVETest.node[11].nic.mac1609_4 	RXTXLostPackets 	0
scalar WAVETest.node[11].nic.mac1609_4 	TotalLostPackets 	0
scalar WAVETest.node[11].nic.mac1609_4 	DroppedPacketsInMac 	0
scalar WAVETest.node[11].nic.mac1609_4 	TooLittleTime 	0
scalar WAVETest.node[11].nic.mac1609_4 	TimesIntoBackoff 	76
scalar WAVETest.node[11].nic.mac1609_4 	SlotsBackoff 	252
scalar WAVETest.node[11].nic.mac1609_4 	NumInternalContention 	0
scalar WAVETest.node[11].nic.mac1609_4 	totalBusyTime 	0.048547999596
scalar WAVETest.node[11].veinsmobility 	startTime 	55.1
scalar WAVETest.node[11].veinsmobility 	totalTime 	244.9
scalar WAVETest.node[11].veinsmobility 	stopTime 	300
scalar WAVETest.node[11].veinsmobility 	minSpeed 	0.47637025090517
scalar WAVETest.node[11].veinsmobility 	maxSpeed 	29.999799355573
scalar WAVETest.node[11].veinsmobility 	totalDistance 	7205.1914520662
scalar WAVETest.node[11].veinsmobility 	totalCO2Emission 	1615.6612073291
scalar WAVETest.node[12].appl 	ReceivedUnicasts 	0
scalar WAVETest.node[12].appl 	ReceivedBroadcasts 	0
scalar WAVETest.node[12].appl 	SentUnicasts 	0
scalar WAVETest.node[12].appl 	SentBroadcasts 	0
statistic WAVETest.node[12].appl 	distance:stats
field count 0
field mean 0
field stddev -nan
field sum 0
field sqrsum 0
field min 0
field max 0
attr interpolationmode  none
attr source  distance
attr title  "distance, stats"
statistic WAVETest.node[12].appl 	delay:stats
field count 0
field mean 0
field stddev -nan
field sum 0
field sqrsum 0
field min 0
field max 0
attr interpolationmode  none
attr source  delay
attr title  "delay time, stats"
statistic WAVETest.node[12].appl 	hopLimit:stats
field count 0
field mean 0
field stddev -nan
field sum 0
field sqrsum 0
field min 0
field max 0
attr interpolationmode  none
attr source  hopLimit
attr title  "hop limit, stats"
scalar WAVETest.node[12].nic.phy80211p 	busyTime 	0.00015556481737807
scalar WAVETest.node[12].nic.mac1609_4 	ReceivedUnicastPackets 	0
scalar WAVETest.node[12].nic.mac1609_4 	ReceivedBroadcasts 	305
scalar WAVETest.node[12].nic.mac1609_4 	SentPackets 	49
scalar WAVETest.node[12].nic.mac1609_4 	SNIRLostPackets 	0
scalar WAVETest.node[12].nic.mac1609_4 	RXTXLostPackets 	0
scalar WAVETest.node[12].nic.mac1609_4 	TotalLostPackets 	0
scalar WAVETest.node[12].nic.mac1609_4 	DroppedPacketsInMac 	0
scalar WAVETest.node[12].nic.mac1609_4 	TooLittleTime 	0
scalar WAVETest.node[12].nic.mac1609_4 	TimesIntoBackoff 	49
scalar WAVETest.node[12].nic.mac1609_4 	SlotsBackoff 	152
scalar WAVETest.node[12].nic.mac1609_4 	NumInternalContention 	0
scalar WAVETest.node[12].nic.mac1609_4 	totalBusyTime 	0.044088999633
scalar WAVETest.node[12].veinsmobility 	startTime 	60.1
scalar WAVETest.node[12].veinsmobility 	totalTime 	239.9
scalar WAVETest.node[12].veinsmobility 	stopTime 	300
scalar WAVETest.node[12].veinsmobility 	minSpeed 	0.48098018418532
scalar WAVETest.node[12].veinsmobility 	maxSpeed 	29.999958389788
scalar WAVETest.node[12].veinsmobility 	totalDistance 	7055.2841718746
scalar WAVETest.node[12].veinsmobility 	totalCO2Emission 	1581.8138247357
scalar WAVETest.node[13].appl 	ReceivedUnicasts 	0
scalar WAVETest.node[13].appl 	ReceivedBroadcasts 	0
scalar WAVETest.node[13].appl 	SentUnicasts 	0
scalar WAVETest.node[13].appl 	SentBroadcasts 	0
statistic WAVETest.node[13].appl 	distance:stats
field count 0
field mean 0
field stddev -nan
field sum 0
field sqrsum 0
field min 0
field max 0
attr interpolationmode  none
attr source  distance
attr title  "distance, stats"
statistic WAVETest.node[13].appl 	delay:stats
field count 0
field mean 0
field stddev -nan
field sum 0
field sqrsum 0
field min 0
field max 0
attr interpolationmode  none
attr source  delay
attr title  "delay time, stats"
statistic WAVETest.node[13].appl 	hopLimit:stats
field count 0
field mean 0
field stddev -nan
field sum 0
field sqrsum 0
field min 0
field max 0
attr interpolationmode  none
attr source  hopLimit
attr title  "hop limit, stats"
scalar WAVETest.node[13].nic.phy80211p 	busyTime 	0.0001573435491358
scalar WAVETest.node[13].nic.mac1609_4 	ReceivedUnicastPackets 	0
scalar WAVETest.node[13].nic.mac1609_4 	ReceivedBroadcasts 	301
scalar WAVETest.node[13].nic.mac1609_4 	SentPackets 	48
scalar WAVETest.node[13].nic.mac1609_4 	SNIRLostPackets 	0
scalar WAVETest.node[13].nic.mac1609_4 	RXTXLostPackets 	0
scalar WAVETest.node[13].nic.mac1609_4 	TotalLostPackets 	0
scalar WAVETest.node[13].nic.mac1609_4 	DroppedPacketsInMac 	0
scalar WAVETest.node[13].nic.mac1609_4 	TooLittleTime 	0
scalar WAVETest.node[13].nic.mac1609_4 	TimesIntoBackoff 	95
scalar WAVETest.node[13].nic.mac1609_4 	SlotsBackoff 	147
scalar WAVETest.node[13].nic.mac1609_4 	NumInternalContention 	0
scalar WAVETest.node[13].nic.mac1609_4 	totalBusyTime 	0.043727999636
scalar WAVETest.node[13].veinsmobility 	startTime 	65.1
scalar WAVETest.node[13].veinsmobility 	totalTime 	234.9
scalar WAVETest.node[13].veinsmobility 	stopTime 	300
scalar WAVETest.node[13].veinsmobility 	minSpeed 	0.49195865406655
scalar WAVETest.node[13].veinsmobility 	maxSpeed 	29.999844280712
scalar WAVETest.node[13].veinsmobility 	totalDistance 	6906.6081900321
scalar WAVETest.node[13].veinsmobility 	totalCO2Emission 	1556.3864203512
scalar WAVETest.node[14].appl 	ReceivedUnicasts 	0
scalar WAVETest.node[14].appl 	ReceivedBroadcasts 	0
scalar WAVETest.node[14].appl 	SentUnicasts 	0
scalar WAVETest.node[14].appl 	SentBroadcasts 	0
statistic WAVETest.node[14].appl 	distance:stats
field count 0
field mean 0
field stddev -nan
field sum 0
field sqrsum 0
field min 0
field max 0
attr interpolationmode  none
attr source  distance
attr title  "distance, stats"
statistic WAVETest.node[14].appl 	delay:stats
field count 0
field mean 0
field stddev -nan
field sum 0
field sqrsum 0
field min 0
field max 0
attr interpolationmode  none
attr source  delay
attr title  "delay time, stats"
statistic WAVETest.node[14].appl 	hopLimit:stats
field count 0
field mean 0
field stddev -nan
field sum 0
field sqrsum 0
field min 0
field max 0
attr interpolationmode  none
attr source  hopLimit
attr title  "hop limit, stats"
scalar WAVETest.node[14].nic.phy80211p 	busyTime 	0.00015502392215311
scalar WAVETest.node[14].nic.mac1609_4 	ReceivedUnicastPackets 	4
scalar WAVETest.node[14].nic.mac1609_4 	ReceivedBroadcasts 	291
scalar WAVETest.node[14].nic.mac1609_4 	SentPackets 	55
scalar WAVETest.node[14].nic.mac1609_4 	SNIRLostPackets 	0
scalar WAVETest.node[14].nic.mac1609_4 	RXTXLostPackets 	0
scalar WAVETest.node[14].nic.mac1609_4 	TotalLostPackets 	0
scalar WAVETest.node[14].nic.mac1609_4 	DroppedPacketsInMac 	0
scalar WAVETest.node[14].nic.mac1609_4 	TooLittleTime 	0
scalar WAVETest.node[14].nic.mac1609_4 	TimesIntoBackoff 	55
scalar WAVETest.node[14].nic.mac1609_4 	SlotsBackoff 	174
scalar WAVETest.node[14].nic.mac1609_4 	NumInternalContention 	0
scalar WAVETest.node[14].nic.mac1609_4 	totalBusyTime 	0.042894999643
scalar WAVETest.node[14].veinsmobility 	startTime 	70.1
scalar WAVETest.node[14].veinsmobility 	totalTime 	229.9
scalar WAVETest.node[14].veinsmobility 	stopTime 	300
scalar WAVETest.node[14].veinsmobility 	minSpeed 	0.48062990354374
scalar WAVETest.node[14].veinsmobility 	maxSpeed 	29.999923365773
scalar WAVETest.node[14].veinsmobility 	totalDistance 	6758.2504786022
scalar WAVETest.node[14].veinsmobility 	totalCO2Emission 	1523.1877733522
scalar WAVETest.node[15].appl 	ReceivedUnicasts 	0
scalar WAVETest.node[15].appl 	ReceivedBroadcasts 	0
scalar WAVETest.node[15].appl 	SentUnicasts 	0
scalar WAVETest.node[15].appl 	SentBroadcasts 	0
statistic WAVETest.node[15].appl 	distance:stats
field count 0
field mean 0
field stddev -nan
field sum 0
field sqrsum 0
field min 0
field max 0
attr interpolationmode  none
attr source  distance
attr title  "distance, stats"
statistic WAVETest.node[15].appl 	delay:stats
field count 0
field mean 0
field stddev -nan
field sum 0
field sqrsum 0
field min 0
field max 0
attr interpolationmode  none
attr source  delay
attr title  "delay time, stats"
statistic WAVETest.node[15].appl 	hopLimit:stats
field count 0
field mean 0
field stddev -nan
field sum 0
field sqrsum 0
field min 0
field max 0
attr interpolationmode  none
attr source  hopLimit
attr title  "hop limit, stats"
scalar WAVETest.node[15].nic.phy80211p 	busyTime 	0.00015313472526901
scalar WAVETest.node[15].nic.mac1609_4 	ReceivedUnicastPackets 	0
scalar WAVETest.node[15].nic.mac1609_4 	ReceivedBroadcasts 	282
scalar WAVETest.node[15].nic.mac1609_4 	SentPackets 	46
scalar WAVETest.node[15].nic.mac1609_4 	SNIRLostPackets 	0
scalar WAVETest.node[15].nic.mac1609_4 	RXTXLostPackets 	0
scalar WAVETest.node[15].nic.mac1609_4 	TotalLostPackets 	0
scalar WAVETest.node[15].nic.mac1609_4 	DroppedPacketsInMac 	0
scalar WAVETest.node[15].nic.mac1609_4 	TooLittleTime 	0
scalar WAVETest.node[15].nic.mac1609_4 	TimesIntoBackoff 	91
scalar WAVETest.node[15].nic.mac1609_4 	SlotsBackoff 	147
scalar WAVETest.node[15].nic.mac1609_4 	NumInternalContention 	0
scalar WAVETest.node[15].nic.mac1609_4 	totalBusyTime 	0.040365999664
scalar WAVETest.node[15].veinsmobility 	startTime 	75.1
scalar WAVETest.node[15].veinsmobility 	totalTime 	224.9
scalar WAVETest.node[15].veinsmobility 	stopTime 	300
scalar WAVETest.node[15].veinsmobility 	minSpeed 	0.49804604699602
scalar WAVETest.node[15].veinsmobility 	maxSpeed 	29.999953221937
scalar WAVETest.node[15].veinsmobility 	totalDistance 	6606.6988626975
scalar WAVETest.node[15].veinsmobility 	totalCO2Emission 	1509.4093817688
scalar WAVETest.node[16].appl 	ReceivedUnicasts 	0
scalar WAVETest.node[16].appl 	ReceivedBroadcasts 	0
scalar WAVETest.node[16].appl 	SentUnicasts 	0
scalar WAVETest.node[16].appl 	SentBroadcasts 	0
statistic WAVETest.node[16].appl 	distance:stats
field count 0
field mean 0
field stddev -nan
field sum 0
field sqrsum 0
field min 0
field max 0
attr interpolationmode  none
attr source  distance
attr title  "distance, stats"
statistic WAVETest.node[16].appl 	delay:stats
field count 0
field mean 0
field stddev -nan
field sum 0
field sqrsum 0
field min 0
field max 0
attr interpolationmode  none
attr source  delay
attr title  "delay time, stats"
statistic WAVETest.node[16].appl 	hopLimit:stats
field count 0
field mean 0
field stddev -nan
field sum 0
field sqrsum 0
field min 0
field max 0
attr interpolationmode  none
attr source  hopLimit
attr title  "hop limit, stats"
scalar WAVETest.node[16].nic.phy80211p 	busyTime 	0.00015115961674852
scalar WAVETest.node[16].nic.mac1609_4 	ReceivedUnicastPackets 	2
scalar WAVETest.node[16].nic.mac1609_4 	ReceivedBroadcasts 	273
scalar WAVETest.node[16].nic.mac1609_4 	SentPackets 	49
scalar WAVETest.node[16].nic.mac1609_4 	SNIRLostPackets 	0
scalar WAVETest.node[16].nic.mac1609_4 	RXTXLostPackets 	0
scalar WAVETest.node[16].nic.mac1609_4 	TotalLostPackets 	0
scalar WAVETest.node[16].nic.mac1609_4 	DroppedPacketsInMac 	0
scalar WAVETest.node[16].nic.mac1609_4 	TooLittleTime 	0
scalar WAVETest.node[16].nic.mac1609_4 	TimesIntoBackoff 	56
scalar WAVETest.node[16].nic.mac1609_4 	SlotsBackoff 	212
scalar WAVETest.node[16].nic.mac1609_4 	NumInternalContention 	0
scalar WAVETest.node[16].nic.mac1609_4 	totalBusyTime 	0.039408999672
scalar WAVETest.node[16].veinsmobility 	startTime 	80.1
scalar WAVETest.node[16].veinsmobility 	totalTime 	219.9
scalar WAVETest.node[16].veinsmobility 	stopTime 	300
scalar WAVETest.node[16].veinsmobility 	minSpeed 	0.49948783503496
scalar WAVETest.node[16].veinsmobility 	maxSpeed 	29.999877258437
scalar WAVETest.node[16].veinsmobility 	totalDistance 	6459.4896790474
scalar WAVETest.node[16].veinsmobility 	totalCO2Emission 	1465.3219939074
scalar WAVETest.node[17].appl 	ReceivedUnicasts 	0
scalar WAVETest.node[17].appl 	ReceivedBroadcasts 	0
scalar WAVETest.node[17].appl 	SentUnicasts 	0
scalar WAVETest.node[17].appl 	SentBroadcasts 	0
statistic WAVETest.node[17].appl 	distance:stats
field count 0
field mean 0
field stddev -nan
field sum 0
field sqrsum 0
field min 0
field max 0
attr interpolationmode  none
attr source  distance
attr title  "distance, stats"
statistic WAVETest.node[17].appl 	delay:stats
field count 0
field mean 0
field stddev -nan
field sum 0
field sqrsum 0
field min 0
field max 0
attr interpolationmode  none
attr source  delay
attr title  "delay time, stats"
statistic WAVETest.node[17].appl 	hopLimit:stats
field count 0
field mean 0
field stddev -nan
field sum 0
field sqrsum 0
field min 0
field max 0
attr interpolationmode  none
attr source  hopLimit
attr title  "hop limit, stats"
scalar WAVETest.node[17].nic.phy80211p 	busyTime 	0.00015244299547231
scalar WAVETest.node[17].nic.mac1609_4 	ReceivedUnicastPackets 	0
scalar WAVETest.node[17].nic.mac1609_4 	ReceivedBroadcasts 	268
scalar WAVETest.node[17].nic.mac1609_4 	SentPackets 	44
scalar WAVETest.node[17].nic.mac1609_4 	SNIRLostPackets 	0
scalar WAVETest.node[17].nic.mac1609_4 	RXTXLostPackets 	0
scalar WAVETest.node[17].nic.mac1609_4 	TotalLostPackets 	0
scalar WAVETest.node[17].nic.mac1609_4 	DroppedPacketsInMac 	0
scalar WAVETest.node[17].nic.mac1609_4 	TooLittleTime 	0
scalar WAVETest.node[17].nic.mac1609_4 	TimesIntoBackoff 	44
scalar WAVETest.node[17].nic.mac1609_4 	SlotsBackoff 	129
scalar WAVETest.node[17].nic.mac1609_4 	NumInternalContention 	0
scalar WAVETest.node[17].nic.mac1609_4 	totalBusyTime 	0.03844399968
scalar WAVETest.node[17].veinsmobility 	startTime 	85.1
scalar WAVETest.node[17].veinsmobility 	totalTime 	214.9
scalar WAVETest.node[17].veinsmobility 	stopTime 	300
scalar WAVETest.node[17].veinsmobility 	minSpeed 	0.47968434647191
scalar WAVETest.node[17].veinsmobility 	maxSpeed 	29.999948261422
scalar WAVETest.node[17].veinsmobility 	totalDistance 	6307.9491827043
scalar WAVETest.node[17].veinsmobility 	totalCO2Emission 	1454.6299247695
scalar WAVETest.node[18].appl 	ReceivedUnicasts 	0
scalar WAVETest.node[18].appl 	ReceivedBroadcasts 	0
scalar WAVETest.node[18].appl 	SentUnicasts 	0
scalar WAVETest.node[18].appl 	SentBroadcasts 	0
statistic WAVETest.node[18].appl 	distance:stats
field count 0
field mean 0
field stddev -nan
field sum 0
field sqrsum 0
field min 0
field max 0
attr interpolationmode  none
attr source  distance
attr title  "distance, stats"
statistic WAVETest.node[18].appl 	delay:stats
field count 0
field mean 0
field stddev -nan
field sum 0
field sqrsum 0
field min 0
field max 0
attr interpolationmode  none
attr source  delay
attr title  "delay time, stats"
statistic WAVETest.node[18].appl 	hopLimit:stats
field count 0
field mean 0
field stddev -nan
field sum 0
field sqrsum 0
field min 0
field max 0
attr interpolationmode  none
attr source  hopLimit
attr title  "hop limit, stats"
scalar WAVETest.node[18].nic.phy80211p 	busyTime 	0.00014692710692234
scalar WAVETest.node[18].nic.mac1609_4 	ReceivedUnicastPackets 	2
scalar WAVETest.node[18].nic.mac1609_4 	ReceivedBroadcasts 	255
scalar WAVETest.node[18].nic.mac1609_4 	SentPackets 	47
scalar WAVETest.node[18].nic.mac1609_4 	SNIRLostPackets 	0
scalar WAVETest.node[18].nic.mac1609_4 	RXTXLostPackets 	0
scalar WAVETest.node[18].nic.mac1609_4 	TotalLostPackets 	0
scalar WAVETest.node[18].nic.mac1609_4 	DroppedPacketsInMac 	0
scalar WAVETest.node[18].nic.mac1609_4 	TooLittleTime 	0
scalar WAVETest.node[18].nic.mac1609_4 	TimesIntoBackoff 	47
scalar WAVETest.node[18].nic.mac1609_4 	SlotsBackoff 	130
scalar WAVETest.node[18].nic.mac1609_4 	NumInternalContention 	0
scalar WAVETest.node[18].nic.mac1609_4 	totalBusyTime 	0.036526999696
scalar WAVETest.node[18].veinsmobility 	startTime 	90.1
scalar WAVETest.node[18].veinsmobility 	totalTime 	209.9
scalar WAVETest.node[18].veinsmobility 	stopTime 	300
scalar WAVETest.node[18].veinsmobility 	minSpeed 	0.49639379185392
scalar WAVETest.node[18].veinsmobility 	maxSpeed 	29.999994992511
scalar WAVETest.node[18].veinsmobility 	totalDistance 	6161.2082433224
scalar WAVETest.node[18].veinsmobility 	totalCO2Emission 	1392.722731866
scalar WAVETest.node[19].appl 	ReceivedUnicasts 	0
scalar WAVETest.node[19].appl 	ReceivedBroadcasts 	0
scalar WAVETest.node[19].appl 	SentUnicasts 	0
scalar WAVETest.node[19].appl 	SentBroadcasts 	0
statistic WAVETest.node[19].appl 	distance:stats
field count 0
field mean 0
field stddev -nan
field sum 0
field sqrsum 0
field min 0
field max 0
attr interpolationmode  none
attr source  distance
attr title  "distance, stats"
statistic WAVETest.node[19].appl 	delay:stats
field count 0
field mean 0
field stddev -nan
field sum 0
field sqrsum 0
field min 0
field max 0
attr interpolationmode  none
attr source  delay
attr title  "delay time, stats"
statistic WAVETest.node[19].appl 	hopLimit:stats
field count 0
field mean 0
field stddev -nan
field sum 0
field sqrsum 0
field min 0
field max 0
attr interpolationmode  none
attr source  hopLimit
attr title  "hop limit, stats"
scalar WAVETest.node[19].nic.phy80211p 	busyTime 	0.00014934114077599
scalar WAVETest.node[19].nic.mac1609_4 	ReceivedUnicastPackets 	0
scalar WAVETest.node[19].nic.mac1609_4 	ReceivedBroadcasts 	251
scalar WAVETest.node[19].nic.mac1609_4 	SentPackets 	42
scalar WAVETest.node[19].nic.mac1609_4 	SNIRLostPackets 	0
scalar WAVETest.node[19].nic.mac1609_4 	RXTXLostPackets 	0
scalar WAVETest.node[19].nic.mac1609_4 	TotalLostPackets 	0
scalar WAVETest.node[19].nic.mac1609_4 	DroppedPacketsInMac 	0
scalar WAVETest.node[19].nic.mac1609_4 	TooLittleTime 	0
scalar WAVETest.node[19].nic.mac1609_4 	TimesIntoBackoff 	44
scalar WAVETest.node[19].nic.mac1609_4 	SlotsBackoff 	124
scalar WAVETest.node[19].nic.mac1609_4 	NumInternalContention 	0
scalar WAVETest.node[19].nic.mac1609_4 	totalBusyTime 	0.035681999703
scalar WAVETest.node[19].veinsmobility 	startTime 	95.1
scalar WAVETest.node[19].veinsmobility 	totalTime 	204.9
scalar WAVETest.node[19].veinsmobility 	stopTime 	300
scalar WAVETest.node[19].veinsmobility 	minSpeed 	0.49264745102264
scalar WAVETest.node[19].veinsmobility 	maxSpeed 	29.999795254145
scalar WAVETest.node[19].veinsmobility 	totalDistance 	6005.424231322
scalar WAVETest.node[19].veinsmobility 	totalCO2Emission 	1363.5671077916
scalar WAVETest.node[2].appl 	ReceivedUnicasts 	0
scalar WAVETest.node[2].appl 	ReceivedBroadcasts 	0
scalar WAVETest.node[2].appl 	SentUnicasts 	0
scalar WAVETest.node[2].appl 	SentBroadcasts 	0
statistic WAVETest.node[2].appl 	distance:stats
field count 0
field mean 0
field stddev -nan
field sum 0
field sqrsum 0
field min 0
field max 0
attr interpolationmode  none
attr source  distance
attr title  "distance, stats"
statistic WAVETest.node[2].appl 	delay:stats
field count 0
field mean 0
field stddev -nan
field sum 0
field sqrsum 0
field min 0
field max 0
attr interpolationmode  none
attr source  delay
attr title  "delay time, stats"
statistic WAVETest.node[2].appl 	hopLimit:stats
field count 0
field mean 0
field stddev -nan
field sum 0
field sqrsum 0
field min 0
field max 0
attr interpolationmode  none
attr source  hopLimit
attr title  "hop limit, stats"
scalar WAVETest.node[2].nic.phy80211p 	busyTime 	0.00016516039876164
scalar WAVETest.node[2].nic.mac1609_4 	ReceivedUnicastPackets 	29
scalar WAVETest.node[2].nic.mac1609_4 	ReceivedBroadcasts 	359
scalar WAVETest.node[2].nic.mac1609_4 	SentPackets 	117
scalar WAVETest.node[2].nic.mac1609_4 	SNIRLostPackets 	0
scalar WAVETest.node[2].nic.mac1609_4 	RXTXLostPackets 	0
scalar WAVETest.node[2].nic.mac1609_4 	TotalLostPackets 	0
scalar WAVETest.node[2].nic.mac1609_4 	DroppedPacketsInMac 	0
scalar WAVETest.node[2].nic.mac1609_4 	TooLittleTime 	0
scalar WAVETest.node[2].nic.mac1609_4 	TimesIntoBackoff 	136
scalar WAVETest.node[2].nic.mac1609_4 	SlotsBackoff 	419
scalar WAVETest.node[2].nic.mac1609_4 	NumInternalContention 	0
scalar WAVETest.node[2].nic.mac1609_4 	totalBusyTime 	0.065516999455
scalar WAVETest.node[2].veinsmobility 	startTime 	10.1
scalar WAVETest.node[2].veinsmobility 	totalTime 	289.9
scalar WAVETest.node[2].veinsmobility 	stopTime 	300
scalar WAVETest.node[2].veinsmobility 	minSpeed 	0.49292982601328
scalar WAVETest.node[2].veinsmobility 	maxSpeed 	29.999981575762
scalar WAVETest.node[2].veinsmobility 	totalDistance 	8548.4585113556
scalar WAVETest.node[2].veinsmobility 	totalCO2Emission 	1917.7281723744
scalar WAVETest.node[20].appl 	ReceivedUnicasts 	2
scalar WAVETest.node[20].appl 	ReceivedBroadcasts 	0
scalar WAVETest.node[20].appl 	SentUnicasts 	0
scalar WAVETest.node[20].appl 	SentBroadcasts 	0
statistic WAVETest.node[20].appl 	distance:stats
field count 2
field mean 2959.7670468007
field stddev 0.042940145044458
field sum 5919.5340936014
field sqrsum 17520441.944499
field min 2959.7366835286
field max 2959.7974100728
attr interpolationmode  none
attr source  distance
attr title  "distance, stats"
statistic WAVETest.node[20].appl 	delay:stats
field count 2
field mean 0.79185520507
field stddev 0.00034011775627599
field sum 1.58371041014
field sqrsum 1.254069447273
field min 0.791614705498
field max 0.792095704642
attr interpolationmode  none
attr source  delay
attr title  "delay time, stats"
statistic WAVETest.node[20].appl 	hopLimit:stats
field count 2
field mean 8
field stddev 0
field sum 16
field sqrsum 128
field min 8
field max 8
attr interpolationmode  none
attr source  hopLimit
attr title  "hop limit, stats"
scalar WAVETest.node[20].nic.phy80211p 	busyTime 	0.0001464732353977
scalar WAVETest.node[20].nic.mac1609_4 	ReceivedUnicastPackets 	2
scalar WAVETest.node[20].nic.mac1609_4 	ReceivedBroadcasts 	242
scalar WAVETest.node[20].nic.mac1609_4 	SentPackets 	41
scalar WAVETest.node[20].nic.mac1609_4 	SNIRLostPackets 	0
scalar WAVETest.node[20].nic.mac1609_4 	RXTXLostPackets 	0
scalar WAVETest.node[20].nic.mac1609_4 	TotalLostPackets 	0
scalar WAVETest.node[20].nic.mac1609_4 	DroppedPacketsInMac 	0
scalar WAVETest.node[20].nic.mac1609_4 	TooLittleTime 	0
scalar WAVETest.node[20].nic.mac1609_4 	TimesIntoBackoff 	80
scalar WAVETest.node[20].nic.mac1609_4 	SlotsBackoff 	145
scalar WAVETest.node[20].nic.mac1609_4 	NumInternalContention 	0
scalar WAVETest.node[20].nic.mac1609_4 	totalBusyTime 	0.034240999715
scalar WAVETest.node[20].veinsmobility 	startTime 	100.1
scalar WAVETest.node[20].veinsmobility 	totalTime 	199.9
scalar WAVETest.node[20].veinsmobility 	stopTime 	300
scalar WAVETest.node[20].veinsmobility 	minSpeed 	0.47988404684584
scalar WAVETest.node[20].veinsmobility 	maxSpeed 	29.999634734704
scalar WAVETest.node[20].veinsmobility 	totalDistance 	5858.3539012075
scalar WAVETest.node[20].veinsmobility 	totalCO2Emission 	1345.1958603035
scalar WAVETest.node[21].appl 	ReceivedUnicasts 	0
scalar WAVETest.node[21].appl 	ReceivedBroadcasts 	0
scalar WAVETest.node[21].appl 	SentUnicasts 	0
scalar WAVETest.node[21].appl 	SentBroadcasts 	0
statistic WAVETest.node[21].appl 	distance:stats
field count 0
field mean 0
field stddev -nan
field sum 0
field sqrsum 0
field min 0
field max 0
attr interpolationmode  none
attr source  distance
attr title  "distance, stats"
statistic WAVETest.node[21].appl 	delay:stats
field count 0
field mean 0
field stddev -nan
field sum 0
field sqrsum 0
field min 0
field max 0
attr interpolationmode  none
attr source  delay
attr title  "delay time, stats"
statistic WAVETest.node[21].appl 	hopLimit:stats
field count 0
field mean 0
field stddev -nan
field sum 0
field sqrsum 0
field min 0
field max 0
attr interpolationmode  none
attr source  hopLimit
attr title  "hop limit, stats"
scalar WAVETest.node[21].nic.phy80211p 	busyTime 	0.00014592098390457
scalar WAVETest.node[21].nic.mac1609_4 	ReceivedUnicastPackets 	0
scalar WAVETest.node[21].nic.mac1609_4 	ReceivedBroadcasts 	235
scalar WAVETest.node[21].nic.mac1609_4 	SentPackets 	40
scalar WAVETest.node[21].nic.mac1609_4 	SNIRLostPackets 	0
scalar WAVETest.node[21].nic.mac1609_4 	RXTXLostPackets 	0
scalar WAVETest.node[21].nic.mac1609_4 	TotalLostPackets 	0
scalar WAVETest.node[21].nic.mac1609_4 	DroppedPacketsInMac 	0
scalar WAVETest.node[21].nic.mac1609_4 	TooLittleTime 	0
scalar WAVETest.node[21].nic.mac1609_4 	TimesIntoBackoff 	79
scalar WAVETest.node[21].nic.mac1609_4 	SlotsBackoff 	135
scalar WAVETest.node[21].nic.mac1609_4 	NumInternalContention 	0
scalar WAVETest.node[21].nic.mac1609_4 	totalBusyTime 	0.033279999723
scalar WAVETest.node[21].veinsmobility 	startTime 	105.1
scalar WAVETest.node[21].veinsmobility 	totalTime 	194.9
scalar WAVETest.node[21].veinsmobility 	stopTime 	300
scalar WAVETest.node[21].veinsmobility 	minSpeed 	0.48666951677296
scalar WAVETest.node[21].veinsmobility 	maxSpeed 	29.999962406175
scalar WAVETest.node[21].veinsmobility 	totalDistance 	5707.6571493354
scalar WAVETest.node[21].veinsmobility 	totalCO2Emission 	1323.5543253635
scalar WAVETest.node[22].appl 	ReceivedUnicasts 	0
scalar WAVETest.node[22].appl 	ReceivedBroadcasts 	0
scalar WAVETest.node[22].appl 	SentUnicasts 	0
scalar WAVETest.node[22].appl 	SentBroadcasts 	0
statistic WAVETest.node[22].appl 	distance:stats
field count 0
field mean 0
field stddev -nan
field sum 0
field sqrsum 0
field min 0
field max 0
attr interpolationmode  none
attr source  distance
attr title  "distance, stats"
statistic WAVETest.node[22].appl 	delay:stats
field count 0
field mean 0
field stddev -nan
field sum 0
field sqrsum 0
field min 0
field max 0
attr interpolationmode  none
attr source  delay
attr title  "delay time, stats"
statistic WAVETest.node[22].appl 	hopLimit:stats
field count 0
field mean 0
field stddev -nan
field sum 0
field sqrsum 0
field min 0
field max 0
attr interpolationmode  none
attr source  hopLimit
attr title  "hop limit, stats"
scalar WAVETest.node[22].nic.phy80211p 	busyTime 	0.00014281200512902
scalar WAVETest.node[22].nic.mac1609_4 	ReceivedUnicastPackets 	0
scalar WAVETest.node[22].nic.mac1609_4 	ReceivedBroadcasts 	226
scalar WAVETest.node[22].nic.mac1609_4 	SentPackets 	39
scalar WAVETest.node[22].nic.mac1609_4 	SNIRLostPackets 	0
scalar WAVETest.node[22].nic.mac1609_4 	RXTXLostPackets 	0
scalar WAVETest.node[22].nic.mac1609_4 	TotalLostPackets 	0
scalar WAVETest.node[22].nic.mac1609_4 	DroppedPacketsInMac 	0
scalar WAVETest.node[22].nic.mac1609_4 	TooLittleTime 	0
scalar WAVETest.node[22].nic.mac1609_4 	TimesIntoBackoff 	40
scalar WAVETest.node[22].nic.mac1609_4 	SlotsBackoff 	166
scalar WAVETest.node[22].nic.mac1609_4 	NumInternalContention 	0
scalar WAVETest.node[22].nic.mac1609_4 	totalBusyTime 	0.031838999735
scalar WAVETest.node[22].veinsmobility 	startTime 	110.1
scalar WAVETest.node[22].veinsmobility 	totalTime 	189.9
scalar WAVETest.node[22].veinsmobility 	stopTime 	300
scalar WAVETest.node[22].veinsmobility 	minSpeed 	0.4816563306842
scalar WAVETest.node[22].veinsmobility 	maxSpeed 	29.999835990951
scalar WAVETest.node[22].veinsmobility 	totalDistance 	5561.742225272
scalar WAVETest.node[22].veinsmobility 	totalCO2Emission 	1265.4521257501
scalar WAVETest.node[23].appl 	ReceivedUnicasts 	0
scalar WAVETest.node[23].appl 	ReceivedBroadcasts 	0
scalar WAVETest.node[23].appl 	SentUnicasts 	0
scalar WAVETest.node[23].appl 	SentBroadcasts 	0
statistic WAVETest.node[23].appl 	distance:stats
field count 0
field mean 0
field stddev -nan
field sum 0
field sqrsum 0
field min 0
field max 0
attr interpolationmode  none
attr source  distance
attr title  "distance, stats"
statistic WAVETest.node[23].appl 	delay:stats
field count 0
field mean 0
field stddev -nan
field sum 0
field sqrsum 0
field min 0
field max 0
attr interpolationmode  none
attr source  delay
attr title  "delay time, stats"
statistic WAVETest.node[23].appl 	hopLimit:stats
field count 0
field mean 0
field stddev -nan
field sum 0
field sqrsum 0
field min 0
field max 0
attr interpolationmode  none
attr source  hopLimit
attr title  "hop limit, stats"
scalar WAVETest.node[23].nic.phy80211p 	busyTime 	0.00014277987982693
scalar WAVETest.node[23].nic.mac1609_4 	ReceivedUnicastPackets 	0
scalar WAVETest.node[23].nic.mac1609_4 	ReceivedBroadcasts 	220
scalar WAVETest.node[23].nic.mac1609_4 	SentPackets 	38
scalar WAVETest.node[23].nic.mac1609_4 	SNIRLostPackets 	0
scalar WAVETest.node[23].nic.mac1609_4 	RXTXLostPackets 	0
scalar WAVETest.node[23].nic.mac1609_4 	TotalLostPackets 	0
scalar WAVETest.node[23].nic.mac1609_4 	DroppedPacketsInMac 	0
scalar WAVETest.node[23].nic.mac1609_4 	TooLittleTime 	0
scalar WAVETest.node[23].nic.mac1609_4 	TimesIntoBackoff 	39
scalar WAVETest.node[23].nic.mac1609_4 	SlotsBackoff 	126
scalar WAVETest.node[23].nic.mac1609_4 	NumInternalContention 	0
scalar WAVETest.node[23].nic.mac1609_4 	totalBusyTime 	0.030997999742
scalar WAVETest.node[23].veinsmobility 	startTime 	115.1
scalar WAVETest.node[23].veinsmobility 	totalTime 	184.9
scalar WAVETest.node[23].veinsmobility 	stopTime 	300
scalar WAVETest.node[23].veinsmobility 	minSpeed 	0.49448965230258
scalar WAVETest.node[23].veinsmobility 	maxSpeed 	29.999988428724
scalar WAVETest.node[23].veinsmobility 	totalDistance 	5411.9540344012
scalar WAVETest.node[23].veinsmobility 	totalCO2Emission 	1254.4940992275
scalar WAVETest.node[24].appl 	ReceivedUnicasts 	0
scalar WAVETest.node[24].appl 	ReceivedBroadcasts 	0
scalar WAVETest.node[24].appl 	SentUnicasts 	0
scalar WAVETest.node[24].appl 	SentBroadcasts 	0
statistic WAVETest.node[24].appl 	distance:stats
field count 0
field mean 0
field stddev -nan
field sum 0
field sqrsum 0
field min 0
field max 0
attr interpolationmode  none
attr source  distance
attr title  "distance, stats"
statistic WAVETest.node[24].appl 	delay:stats
field count 0
field mean 0
field stddev -nan
field sum 0
field sqrsum 0
field min 0
field max 0
attr interpolationmode  none
attr source  delay
attr title  "delay time, stats"
statistic WAVETest.node[24].appl 	hopLimit:stats
field count 0
field mean 0
field stddev -nan
field sum 0
field sqrsum 0
field min 0
field max 0
attr interpolationmode  none
attr source  hopLimit
attr title  "hop limit, stats"
scalar WAVETest.node[24].nic.phy80211p 	busyTime 	0.00014274596879377
scalar WAVETest.node[24].nic.mac1609_4 	ReceivedUnicastPackets 	0
scalar WAVETest.node[24].nic.mac1609_4 	ReceivedBroadcasts 	214
scalar WAVETest.node[24].nic.mac1609_4 	SentPackets 	37
scalar WAVETest.node[24].nic.mac1609_4 	SNIRLostPackets 	0
scalar WAVETest.node[24].nic.mac1609_4 	RXTXLostPackets 	0
scalar WAVETest.node[24].nic.mac1609_4 	TotalLostPackets 	0
scalar WAVETest.node[24].nic.mac1609_4 	DroppedPacketsInMac 	0
scalar WAVETest.node[24].nic.mac1609_4 	TooLittleTime 	0
scalar WAVETest.node[24].nic.mac1609_4 	TimesIntoBackoff 	38
scalar WAVETest.node[24].nic.mac1609_4 	SlotsBackoff 	117
scalar WAVETest.node[24].nic.mac1609_4 	NumInternalContention 	0
scalar WAVETest.node[24].nic.mac1609_4 	totalBusyTime 	0.030156999749
scalar WAVETest.node[24].veinsmobility 	startTime 	120.1
scalar WAVETest.node[24].veinsmobility 	totalTime 	179.9
scalar WAVETest.node[24].veinsmobility 	stopTime 	300
scalar WAVETest.node[24].veinsmobility 	minSpeed 	0.49868673954043
scalar WAVETest.node[24].veinsmobility 	maxSpeed 	29.999991855933
scalar WAVETest.node[24].veinsmobility 	totalDistance 	5263.4358015624
scalar WAVETest.node[24].veinsmobility 	totalCO2Emission 	1223.9948306452
scalar WAVETest.node[25].appl 	ReceivedUnicasts 	0
scalar WAVETest.node[25].appl 	ReceivedBroadcasts 	0
scalar WAVETest.node[25].appl 	SentUnicasts 	0
scalar WAVETest.node[25].appl 	SentBroadcasts 	0
statistic WAVETest.node[25].appl 	distance:stats
field count 0
field mean 0
field stddev -nan
field sum 0
field sqrsum 0
field min 0
field max 0
attr interpolationmode  none
attr source  distance
attr title  "distance, stats"
statistic WAVETest.node[25].appl 	delay:stats
field count 0
field mean 0
field stddev -nan
field sum 0
field sqrsum 0
field min 0
field max 0
attr interpolationmode  none
attr source  delay
attr title  "delay time, stats"
statistic WAVETest.node[25].appl 	hopLimit:stats
field count 0
field mean 0
field stddev -nan
field sum 0
field sqrsum 0
field min 0
field max 0
attr interpolationmode  none
attr source  hopLimit
attr title  "hop limit, stats"
scalar WAVETest.node[25].nic.phy80211p 	busyTime 	0.00014271011887936
scalar WAVETest.node[25].nic.mac1609_4 	ReceivedUnicastPackets 	0
scalar WAVETest.node[25].nic.mac1609_4 	ReceivedBroadcasts 	208
scalar WAVETest.node[25].nic.mac1609_4 	SentPackets 	36
scalar WAVETest.node[25].nic.mac1609_4 	SNIRLostPackets 	0
scalar WAVETest.node[25].nic.mac1609_4 	RXTXLostPackets 	0
scalar WAVETest.node[25].nic.mac1609_4 	TotalLostPackets 	0
scalar WAVETest.node[25].nic.mac1609_4 	DroppedPacketsInMac 	0
scalar WAVETest.node[25].nic.mac1609_4 	TooLittleTime 	0
scalar WAVETest.node[25].nic.mac1609_4 	TimesIntoBackoff 	37
scalar WAVETest.node[25].nic.mac1609_4 	SlotsBackoff 	103
scalar WAVETest.node[25].nic.mac1609_4 	NumInternalContention 	0
scalar WAVETest.node[25].nic.mac1609_4 	totalBusyTime 	0.029315999756
scalar WAVETest.node[25].veinsmobility 	startTime 	125.1
scalar WAVETest.node[25].veinsmobility 	totalTime 	174.9
scalar WAVETest.node[25].veinsmobility 	stopTime 	300
scalar WAVETest.node[25].veinsmobility 	minSpeed 	0.49651053166017
scalar WAVETest.node[25].veinsmobility 	maxSpeed 	29.999533721944
scalar WAVETest.node[25].veinsmobility 	totalDistance 	5113.4854925277
scalar WAVETest.node[25].veinsmobility 	totalCO2Emission 	1191.479969189
scalar WAVETest.node[26].appl 	ReceivedUnicasts 	0
scalar WAVETest.node[26].appl 	ReceivedBroadcasts 	0
scalar WAVETest.node[26].appl 	SentUnicasts 	0
scalar WAVETest.node[26].appl 	SentBroadcasts 	0
statistic WAVETest.node[26].appl 	distance:stats
field count 0
field mean 0
field stddev -nan
field sum 0
field sqrsum 0
field min 0
field max 0
attr interpolationmode  none
attr source  distance
attr title  "distance, stats"
statistic WAVETest.node[26].appl 	delay:stats
field count 0
field mean 0
field stddev -nan
field sum 0
field sqrsum 0
field min 0
field max 0
attr interpolationmode  none
attr source  delay
attr title  "delay time, stats"
statistic WAVETest.node[26].appl 	hopLimit:stats
field count 0
field mean 0
field stddev -nan
field sum 0
field sqrsum 0
field min 0
field max 0
attr interpolationmode  none
attr source  hopLimit
attr title  "hop limit, stats"
scalar WAVETest.node[26].nic.phy80211p 	busyTime 	0.00014267215890524
scalar WAVETest.node[26].nic.mac1609_4 	ReceivedUnicastPackets 	0
scalar WAVETest.node[26].nic.mac1609_4 	ReceivedBroadcasts 	202
scalar WAVETest.node[26].nic.mac1609_4 	SentPackets 	35
scalar WAVETest.node[26].nic.mac1609_4 	SNIRLostPackets 	0
scalar WAVETest.node[26].nic.mac1609_4 	RXTXLostPackets 	0
scalar WAVETest.node[26].nic.mac1609_4 	TotalLostPackets 	0
scalar WAVETest.node[26].nic.mac1609_4 	DroppedPacketsInMac 	0
scalar WAVETest.node[26].nic.mac1609_4 	TooLittleTime 	0
scalar WAVETest.node[26].nic.mac1609_4 	TimesIntoBackoff 	36
scalar WAVETest.node[26].nic.mac1609_4 	SlotsBackoff 	117
scalar WAVETest.node[26].nic.mac1609_4 	NumInternalContention 	0
scalar WAVETest.node[26].nic.mac1609_4 	totalBusyTime 	0.028474999763
scalar WAVETest.node[26].veinsmobility 	startTime 	130.1
scalar WAVETest.node[26].veinsmobility 	totalTime 	169.9
scalar WAVETest.node[26].veinsmobility 	stopTime 	300
scalar WAVETest.node[26].veinsmobility 	minSpeed 	0.48454794709687
scalar WAVETest.node[26].veinsmobility 	maxSpeed 	29.999841705896
scalar WAVETest.node[26].veinsmobility 	totalDistance 	4966.0198329522
scalar WAVETest.node[26].veinsmobility 	totalCO2Emission 	1158.389997277
scalar WAVETest.node[27].appl 	ReceivedUnicasts 	0
scalar WAVETest.node[27].appl 	ReceivedBroadcasts 	0
scalar WAVETest.node[27].appl 	SentUnicasts 	0
scalar WAVETest.node[27].appl 	SentBroadcasts 	0
statistic WAVETest.node[27].appl 	distance:stats
field count 0
field mean 0
field stddev -nan
field sum 0
field sqrsum 0
field min 0
field max 0
attr interpolationmode  none
attr source  distance
attr title  "distance, stats"
statistic WAVETest.node[27].appl 	delay:stats
field count 0
field mean 0
field stddev -nan
field sum 0
field sqrsum 0
field min 0
field max 0
attr interpolationmode  none
attr source  delay
attr title  "delay time, stats"
statistic WAVETest.node[27].appl 	hopLimit:stats
field count 0
field mean 0
field stddev -nan
field sum 0
field sqrsum 0
field min 0
field max 0
attr interpolationmode  none
attr source  hopLimit
attr title  "hop limit, stats"
scalar WAVETest.node[27].nic.phy80211p 	busyTime 	0.00014263189693147
scalar WAVETest.node[27].nic.mac1609_4 	ReceivedUnicastPackets 	0
scalar WAVETest.node[27].nic.mac1609_4 	ReceivedBroadcasts 	196
scalar WAVETest.node[27].nic.mac1609_4 	SentPackets 	34
scalar WAVETest.node[27].nic.mac1609_4 	SNIRLostPackets 	0
scalar WAVETest.node[27].nic.mac1609_4 	RXTXLostPackets 	0
scalar WAVETest.node[27].nic.mac1609_4 	TotalLostPackets 	0
scalar WAVETest.node[27].nic.mac1609_4 	DroppedPacketsInMac 	0
scalar WAVETest.node[27].nic.mac1609_4 	TooLittleTime 	0
scalar WAVETest.node[27].nic.mac1609_4 	TimesIntoBackoff 	34
scalar WAVETest.node[27].nic.mac1609_4 	SlotsBackoff 	110
scalar WAVETest.node[27].nic.mac1609_4 	NumInternalContention 	0
scalar WAVETest.node[27].nic.mac1609_4 	totalBusyTime 	0.02763399977
scalar WAVETest.node[27].veinsmobility 	startTime 	135.1
scalar WAVETest.node[27].veinsmobility 	totalTime 	164.9
scalar WAVETest.node[27].veinsmobility 	stopTime 	300
scalar WAVETest.node[27].veinsmobility 	minSpeed 	0.47559398892336
scalar WAVETest.node[27].veinsmobility 	maxSpeed 	29.999798202363
scalar WAVETest.node[27].veinsmobility 	totalDistance 	4812.8461685683
scalar WAVETest.node[27].veinsmobility 	totalCO2Emission 	1113.1690792624
scalar WAVETest.node[28].appl 	ReceivedUnicasts 	0
scalar WAVETest.node[28].appl 	ReceivedBroadcasts 	0
scalar WAVETest.node[28].appl 	SentUnicasts 	0
scalar WAVETest.node[28].appl 	SentBroadcasts 	0
statistic WAVETest.node[28].appl 	distance:stats
field count 0
field mean 0
field stddev -nan
field sum 0
field sqrsum 0
field min 0
field max 0
attr interpolationmode  none
attr source  distance
attr title  "distance, stats"
statistic WAVETest.node[28].appl 	delay:stats
field count 0
field mean 0
field stddev -nan
field sum 0
field sqrsum 0
field min 0
field max 0
attr interpolationmode  none
attr source  delay
attr title  "delay time, stats"
statistic WAVETest.node[28].appl 	hopLimit:stats
field count 0
field mean 0
field stddev -nan
field sum 0
field sqrsum 0
field min 0
field max 0
attr interpolationmode  none
attr source  hopLimit
attr title  "hop limit, stats"
scalar WAVETest.node[28].nic.phy80211p 	busyTime 	0.00014258911701063
scalar WAVETest.node[28].nic.mac1609_4 	ReceivedUnicastPackets 	0
scalar WAVETest.node[28].nic.mac1609_4 	ReceivedBroadcasts 	190
scalar WAVETest.node[28].nic.mac1609_4 	SentPackets 	33
scalar WAVETest.node[28].nic.mac1609_4 	SNIRLostPackets 	0
scalar WAVETest.node[28].nic.mac1609_4 	RXTXLostPackets 	0
scalar WAVETest.node[28].nic.mac1609_4 	TotalLostPackets 	0
scalar WAVETest.node[28].nic.mac1609_4 	DroppedPacketsInMac 	0
scalar WAVETest.node[28].nic.mac1609_4 	TooLittleTime 	0
scalar WAVETest.node[28].nic.mac1609_4 	TimesIntoBackoff 	33
scalar WAVETest.node[28].nic.mac1609_4 	SlotsBackoff 	123
scalar WAVETest.node[28].nic.mac1609_4 	NumInternalContention 	0
scalar WAVETest.node[28].nic.mac1609_4 	totalBusyTime 	0.026792999777
scalar WAVETest.node[28].veinsmobility 	startTime 	140.1
scalar WAVETest.node[28].veinsmobility 	totalTime 	159.9
scalar WAVETest.node[28].veinsmobility 	stopTime 	300
scalar WAVETest.node[28].veinsmobility 	minSpeed 	0.48812466515228
scalar WAVETest.node[28].veinsmobility 	maxSpeed 	29.999998997257
scalar WAVETest.node[28].veinsmobility 	totalDistance 	4666.6134774336
scalar WAVETest.node[28].veinsmobility 	totalCO2Emission 	1094.1095267403
scalar WAVETest.node[29].appl 	ReceivedUnicasts 	0
scalar WAVETest.node[29].appl 	ReceivedBroadcasts 	0
scalar WAVETest.node[29].appl 	SentUnicasts 	0
scalar WAVETest.node[29].appl 	SentBroadcasts 	0
statistic WAVETest.node[29].appl 	distance:stats
field count 0
field mean 0
field stddev -nan
field sum 0
field sqrsum 0
field min 0
field max 0
attr interpolationmode  none
attr source  distance
attr title  "distance, stats"
statistic WAVETest.node[29].appl 	delay:stats
field count 0
field mean 0
field stddev -nan
field sum 0
field sqrsum 0
field min 0
field max 0
attr interpolationmode  none
attr source  delay
attr title  "delay time, stats"
statistic WAVETest.node[29].appl 	hopLimit:stats
field count 0
field mean 0
field stddev -nan
field sum 0
field sqrsum 0
field min 0
field max 0
attr interpolationmode  none
attr source  hopLimit
attr title  "hop limit, stats"
scalar WAVETest.node[29].nic.phy80211p 	busyTime 	0.00014254357531311
scalar WAVETest.node[29].nic.mac1609_4 	ReceivedUnicastPackets 	0
scalar WAVETest.node[29].nic.mac1609_4 	ReceivedBroadcasts 	184
scalar WAVETest.node[29].nic.mac1609_4 	SentPackets 	32
scalar WAVETest.node[29].nic.mac1609_4 	SNIRLostPackets 	0
scalar WAVETest.node[29].nic.mac1609_4 	RXTXLostPackets 	0
scalar WAVETest.node[29].nic.mac1609_4 	TotalLostPackets 	0
scalar WAVETest.node[29].nic.mac1609_4 	DroppedPacketsInMac 	0
scalar WAVETest.node[29].nic.mac1609_4 	TooLittleTime 	0
scalar WAVETest.node[29].nic.mac1609_4 	TimesIntoBackoff 	32
scalar WAVETest.node[29].nic.mac1609_4 	SlotsBackoff 	87
scalar WAVETest.node[29].nic.mac1609_4 	NumInternalContention 	0
scalar WAVETest.node[29].nic.mac1609_4 	totalBusyTime 	0.025951999784
scalar WAVETest.node[29].veinsmobility 	startTime 	145.1
scalar WAVETest.node[29].veinsmobility 	totalTime 	154.9
scalar WAVETest.node[29].veinsmobility 	stopTime 	300
scalar WAVETest.node[29].veinsmobility 	minSpeed 	0.48205461191246
scalar WAVETest.node[29].veinsmobility 	maxSpeed 	29.999959225941
scalar WAVETest.node[29].veinsmobility 	totalDistance 	4513.3961621411
scalar WAVETest.node[29].veinsmobility 	totalCO2Emission 	1053.359567483
scalar WAVETest.node[3].appl 	ReceivedUnicasts 	0
scalar WAVETest.node[3].appl 	ReceivedBroadcasts 	0
scalar WAVETest.node[3].appl 	SentUnicasts 	0
scalar WAVETest.node[3].appl 	SentBroadcasts 	0
statistic WAVETest.node[3].appl 	distance:stats
field count 0
field mean 0
field stddev -nan
field sum 0
field sqrsum 0
field min 0
field max 0
attr interpolationmode  none
attr source  distance
attr title  "distance, stats"
statistic WAVETest.node[3].appl 	delay:stats
field count 0
field mean 0
field stddev -nan
field sum 0
field sqrsum 0
field min 0
field max 0
attr interpolationmode  none
attr source  delay
attr title  "delay time, stats"
statistic WAVETest.node[3].appl 	hopLimit:stats
field count 0
field mean 0
field stddev -nan
field sum 0
field sqrsum 0
field min 0
field max 0
attr interpolationmode  none
attr source  hopLimit
attr title  "hop limit, stats"
scalar WAVETest.node[3].nic.phy80211p 	busyTime 	0.00019627939464374
scalar WAVETest.node[3].nic.mac1609_4 	ReceivedUnicastPackets 	0
scalar WAVETest.node[3].nic.mac1609_4 	ReceivedBroadcasts 	440
scalar WAVETest.node[3].nic.mac1609_4 	SentPackets 	58
scalar WAVETest.node[3].nic.mac1609_4 	SNIRLostPackets 	0
scalar WAVETest.node[3].nic.mac1609_4 	RXTXLostPackets 	0
scalar WAVETest.node[3].nic.mac1609_4 	TotalLostPackets 	0
scalar WAVETest.node[3].nic.mac1609_4 	DroppedPacketsInMac 	0
scalar WAVETest.node[3].nic.mac1609_4 	TooLittleTime 	0
scalar WAVETest.node[3].nic.mac1609_4 	TimesIntoBackoff 	58
scalar WAVETest.node[3].nic.mac1609_4 	SlotsBackoff 	195
scalar WAVETest.node[3].nic.mac1609_4 	NumInternalContention 	0
scalar WAVETest.node[3].nic.mac1609_4 	totalBusyTime 	0.071577999404
scalar WAVETest.node[3].veinsmobility 	startTime 	15.1
scalar WAVETest.node[3].veinsmobility 	totalTime 	284.9
scalar WAVETest.node[3].veinsmobility 	stopTime 	300
scalar WAVETest.node[3].veinsmobility 	minSpeed 	0.499061015388
scalar WAVETest.node[3].veinsmobility 	maxSpeed 	29.9999939478
scalar WAVETest.node[3].veinsmobility 	totalDistance 	8396.8876436027
scalar WAVETest.node[3].veinsmobility 	totalCO2Emission 	1875.1720360833
scalar WAVETest.node[30].appl 	ReceivedUnicasts 	0
scalar WAVETest.node[30].appl 	ReceivedBroadcasts 	0
scalar WAVETest.node[30].appl 	SentUnicasts 	0
scalar WAVETest.node[30].appl 	SentBroadcasts 	0
statistic WAVETest.node[30].appl 	distance:stats
field count 0
field mean 0
field stddev -nan
field sum 0
field sqrsum 0
field min 0
field max 0
attr interpolationmode  none
attr source  distance
attr title  "distance, stats"
statistic WAVETest.node[30].appl 	delay:stats
field count 0
field mean 0
field stddev -nan
field sum 0
field sqrsum 0
field min 0
field max 0
attr interpolationmode  none
attr source  delay
attr title  "delay time, stats"
statistic WAVETest.node[30].appl 	hopLimit:stats
field count 0
field mean 0
field stddev -nan
field sum 0
field sqrsum 0
field min 0
field max 0
attr interpolationmode  none
attr source  hopLimit
attr title  "hop limit, stats"
scalar WAVETest.node[30].nic.phy80211p 	busyTime 	0.00014249499547698
scalar WAVETest.node[30].nic.mac1609_4 	ReceivedUnicastPackets 	0
scalar WAVETest.node[30].nic.mac1609_4 	ReceivedBroadcasts 	178
scalar WAVETest.node[30].nic.mac1609_4 	SentPackets 	31
scalar WAVETest.node[30].nic.mac1609_4 	SNIRLostPackets 	0
scalar WAVETest.node[30].nic.mac1609_4 	RXTXLostPackets 	0
scalar WAVETest.node[30].nic.mac1609_4 	TotalLostPackets 	0
scalar WAVETest.node[30].nic.mac1609_4 	DroppedPacketsInMac 	0
scalar WAVETest.node[30].nic.mac1609_4 	TooLittleTime 	0
scalar WAVETest.node[30].nic.mac1609_4 	TimesIntoBackoff 	31
scalar WAVETest.node[30].nic.mac1609_4 	SlotsBackoff 	121
scalar WAVETest.node[30].nic.mac1609_4 	NumInternalContention 	0
scalar WAVETest.node[30].nic.mac1609_4 	totalBusyTime 	0.025110999791
scalar WAVETest.node[30].veinsmobility 	startTime 	150.1
scalar WAVETest.node[30].veinsmobility 	totalTime 	149.9
scalar WAVETest.node[30].veinsmobility 	stopTime 	300
scalar WAVETest.node[30].veinsmobility 	minSpeed 	0.47650575690204
scalar WAVETest.node[30].veinsmobility 	maxSpeed 	29.99990621116
scalar WAVETest.node[30].veinsmobility 	totalDistance 	4364.8305733791
scalar WAVETest.node[30].veinsmobility 	totalCO2Emission 	1022.8075058178
scalar WAVETest.node[31].appl 	ReceivedUnicasts 	0
scalar WAVETest.node[31].appl 	ReceivedBroadcasts 	0
scalar WAVETest.node[31].appl 	SentUnicasts 	0
scalar WAVETest.node[31].appl 	SentBroadcasts 	0
statistic WAVETest.node[31].appl 	distance:stats
field count 0
field mean 0
field stddev -nan
field sum 0
field sqrsum 0
field min 0
field max 0
attr interpolationmode  none
attr source  distance
attr title  "distance, stats"
statistic WAVETest.node[31].appl 	delay:stats
field count 0
field mean 0
field stddev -nan
field sum 0
field sqrsum 0
field min 0
field max 0
attr interpolationmode  none
attr source  delay
attr title  "delay time, stats"
statistic WAVETest.node[31].appl 	hopLimit:stats
field count 0
field mean 0
field stddev -nan
field sum 0
field sqrsum 0
field min 0
field max 0
attr interpolationmode  none
attr source  hopLimit
attr title  "hop limit, stats"
scalar WAVETest.node[31].nic.phy80211p 	busyTime 	0.00014244306299517
scalar WAVETest.node[31].nic.mac1609_4 	ReceivedUnicastPackets 	0
scalar WAVETest.node[31].nic.mac1609_4 	ReceivedBroadcasts 	172
scalar WAVETest.node[31].nic.mac1609_4 	SentPackets 	30
scalar WAVETest.node[31].nic.mac1609_4 	SNIRLostPackets 	0
scalar WAVETest.node[31].nic.mac1609_4 	RXTXLostPackets 	0
scalar WAVETest.node[31].nic.mac1609_4 	TotalLostPackets 	0
scalar WAVETest.node[31].nic.mac1609_4 	DroppedPacketsInMac 	0
scalar WAVETest.node[31].nic.mac1609_4 	TooLittleTime 	0
scalar WAVETest.node[31].nic.mac1609_4 	TimesIntoBackoff 	30
scalar WAVETest.node[31].nic.mac1609_4 	SlotsBackoff 	125
scalar WAVETest.node[31].nic.mac1609_4 	NumInternalContention 	0
scalar WAVETest.node[31].nic.mac1609_4 	totalBusyTime 	0.024269999798
scalar WAVETest.node[31].veinsmobility 	startTime 	155.1
scalar WAVETest.node[31].veinsmobility 	totalTime 	144.9
scalar WAVETest.node[31].veinsmobility 	stopTime 	300
scalar WAVETest.node[31].veinsmobility 	minSpeed 	0.48795200281893
scalar WAVETest.node[31].veinsmobility 	maxSpeed 	29.999771070841
scalar WAVETest.node[31].veinsmobility 	totalDistance 	4217.1124050205
scalar WAVETest.node[31].veinsmobility 	totalCO2Emission 	999.89303993195
scalar WAVETest.node[32].appl 	ReceivedUnicasts 	0
scalar WAVETest.node[32].appl 	ReceivedBroadcasts 	0
scalar WAVETest.node[32].appl 	SentUnicasts 	0
scalar WAVETest.node[32].appl 	SentBroadcasts 	0
statistic WAVETest.node[32].appl 	distance:stats
field count 0
field mean 0
field stddev -nan
field sum 0
field sqrsum 0
field min 0
field max 0
attr interpolationmode  none
attr source  distance
attr title  "distance, stats"
statistic WAVETest.node[32].appl 	delay:stats
field count 0
field mean 0
field stddev -nan
field sum 0
field sqrsum 0
field min 0
field max 0
attr interpolationmode  none
attr source  delay
attr title  "delay time, stats"
statistic WAVETest.node[32].appl 	hopLimit:stats
field count 0
field mean 0
field stddev -nan
field sum 0
field sqrsum 0
field min 0
field max 0
attr interpolationmode  none
attr source  hopLimit
attr title  "hop limit, stats"
scalar WAVETest.node[32].nic.phy80211p 	busyTime 	0.00014238741839886
scalar WAVETest.node[32].nic.mac1609_4 	ReceivedUnicastPackets 	0
scalar WAVETest.node[32].nic.mac1609_4 	ReceivedBroadcasts 	166
scalar WAVETest.node[32].nic.mac1609_4 	SentPackets 	29
scalar WAVETest.node[32].nic.mac1609_4 	SNIRLostPackets 	0
scalar WAVETest.node[32].nic.mac1609_4 	RXTXLostPackets 	0
scalar WAVETest.node[32].nic.mac1609_4 	TotalLostPackets 	0
scalar WAVETest.node[32].nic.mac1609_4 	DroppedPacketsInMac 	0
scalar WAVETest.node[32].nic.mac1609_4 	TooLittleTime 	0
scalar WAVETest.node[32].nic.mac1609_4 	TimesIntoBackoff 	29
scalar WAVETest.node[32].nic.mac1609_4 	SlotsBackoff 	84
scalar WAVETest.node[32].nic.mac1609_4 	NumInternalContention 	0
scalar WAVETest.node[32].nic.mac1609_4 	totalBusyTime 	0.023428999805
scalar WAVETest.node[32].veinsmobility 	startTime 	160.1
scalar WAVETest.node[32].veinsmobility 	totalTime 	139.9
scalar WAVETest.node[32].veinsmobility 	stopTime 	300
scalar WAVETest.node[32].veinsmobility 	minSpeed 	0.47920840668376
scalar WAVETest.node[32].veinsmobility 	maxSpeed 	29.999602760305
scalar WAVETest.node[32].veinsmobility 	totalDistance 	4071.7632793355
scalar WAVETest.node[32].veinsmobility 	totalCO2Emission 	957.37710305937
scalar WAVETest.node[33].appl 	ReceivedUnicasts 	0
scalar WAVETest.node[33].appl 	ReceivedBroadcasts 	0
scalar WAVETest.node[33].appl 	SentUnicasts 	0
scalar WAVETest.node[33].appl 	SentBroadcasts 	0
statistic WAVETest.node[33].appl 	distance:stats
field count 0
field mean 0
field stddev -nan
field sum 0
field sqrsum 0
field min 0
field max 0
attr interpolationmode  none
attr source  distance
attr title  "distance, stats"
statistic WAVETest.node[33].appl 	delay:stats
field count 0
field mean 0
field stddev -nan
field sum 0
field sqrsum 0
field min 0
field max 0
attr interpolationmode  none
attr source  delay
attr title  "delay time, stats"
statistic WAVETest.node[33].appl 	hopLimit:stats
field count 0
field mean 0
field stddev -nan
field sum 0
field sqrsum 0
field min 0
field max 0
attr interpolationmode  none
attr source  hopLimit
attr title  "hop limit, stats"
scalar WAVETest.node[33].nic.phy80211p 	busyTime 	0.00014232764892513
scalar WAVETest.node[33].nic.mac1609_4 	ReceivedUnicastPackets 	0
scalar WAVETest.node[33].nic.mac1609_4 	ReceivedBroadcasts 	160
scalar WAVETest.node[33].nic.mac1609_4 	SentPackets 	28
scalar WAVETest.node[33].nic.mac1609_4 	SNIRLostPackets 	0
scalar WAVETest.node[33].nic.mac1609_4 	RXTXLostPackets 	0
scalar WAVETest.node[33].nic.mac1609_4 	TotalLostPackets 	0
scalar WAVETest.node[33].nic.mac1609_4 	DroppedPacketsInMac 	0
scalar WAVETest.node[33].nic.mac1609_4 	TooLittleTime 	0
scalar WAVETest.node[33].nic.mac1609_4 	TimesIntoBackoff 	54
scalar WAVETest.node[33].nic.mac1609_4 	SlotsBackoff 	100
scalar WAVETest.node[33].nic.mac1609_4 	NumInternalContention 	0
scalar WAVETest.node[33].nic.mac1609_4 	totalBusyTime 	0.022587999812
scalar WAVETest.node[33].veinsmobility 	startTime 	165.1
scalar WAVETest.node[33].veinsmobility 	totalTime 	134.9
scalar WAVETest.node[33].veinsmobility 	stopTime 	300
scalar WAVETest.node[33].veinsmobility 	minSpeed 	0.47723941612057
scalar WAVETest.node[33].veinsmobility 	maxSpeed 	29.999453520461
scalar WAVETest.node[33].veinsmobility 	totalDistance 	3917.0832209511
scalar WAVETest.node[33].veinsmobility 	totalCO2Emission 	931.30117641346
scalar WAVETest.node[34].appl 	ReceivedUnicasts 	0
scalar WAVETest.node[34].appl 	ReceivedBroadcasts 	0
scalar WAVETest.node[34].appl 	SentUnicasts 	0
scalar WAVETest.node[34].appl 	SentBroadcasts 	0
statistic WAVETest.node[34].appl 	distance:stats
field count 0
field mean 0
field stddev -nan
field sum 0
field sqrsum 0
field min 0
field max 0
attr interpolationmode  none
attr source  distance
attr title  "distance, stats"
statistic WAVETest.node[34].appl 	delay:stats
field count 0
field mean 0
field stddev -nan
field sum 0
field sqrsum 0
field min 0
field max 0
attr interpolationmode  none
attr source  delay
attr title  "delay time, stats"
statistic WAVETest.node[34].appl 	hopLimit:stats
field count 0
field mean 0
field stddev -nan
field sum 0
field sqrsum 0
field min 0
field max 0
attr interpolationmode  none
attr source  hopLimit
attr title  "hop limit, stats"
scalar WAVETest.node[34].nic.phy80211p 	busyTime 	0.0001422632782602
scalar WAVETest.node[34].nic.mac1609_4 	ReceivedUnicastPackets 	0
scalar WAVETest.node[34].nic.mac1609_4 	ReceivedBroadcasts 	154
scalar WAVETest.node[34].nic.mac1609_4 	SentPackets 	27
scalar WAVETest.node[34].nic.mac1609_4 	SNIRLostPackets 	0
scalar WAVETest.node[34].nic.mac1609_4 	RXTXLostPackets 	0
scalar WAVETest.node[34].nic.mac1609_4 	TotalLostPackets 	0
scalar WAVETest.node[34].nic.mac1609_4 	DroppedPacketsInMac 	0
scalar WAVETest.node[34].nic.mac1609_4 	TooLittleTime 	0
scalar WAVETest.node[34].nic.mac1609_4 	TimesIntoBackoff 	28
scalar WAVETest.node[34].nic.mac1609_4 	SlotsBackoff 	90
scalar WAVETest.node[34].nic.mac1609_4 	NumInternalContention 	0
scalar WAVETest.node[34].nic.mac1609_4 	totalBusyTime 	0.021746999819
scalar WAVETest.node[34].veinsmobility 	startTime 	170.1
scalar WAVETest.node[34].veinsmobility 	totalTime 	129.9
scalar WAVETest.node[34].veinsmobility 	stopTime 	300
scalar WAVETest.node[34].veinsmobility 	minSpeed 	0.49178117039846
scalar WAVETest.node[34].veinsmobility 	maxSpeed 	29.99979491916
scalar WAVETest.node[34].veinsmobility 	totalDistance 	3771.1827186501
scalar WAVETest.node[34].veinsmobility 	totalCO2Emission 	903.37051742171
scalar WAVETest.node[35].appl 	ReceivedUnicasts 	0
scalar WAVETest.node[35].appl 	ReceivedBroadcasts 	0
scalar WAVETest.node[35].appl 	SentUnicasts 	0
scalar WAVETest.node[35].appl 	SentBroadcasts 	0
statistic WAVETest.node[35].appl 	distance:stats
field count 0
field mean 0
field stddev -nan
field sum 0
field sqrsum 0
field min 0
field max 0
attr interpolationmode  none
attr source  distance
attr title  "distance, stats"
statistic WAVETest.node[35].appl 	delay:stats
field count 0
field mean 0
field stddev -nan
field sum 0
field sqrsum 0
field min 0
field max 0
attr interpolationmode  none
attr source  delay
attr title  "delay time, stats"
statistic WAVETest.node[35].appl 	hopLimit:stats
field count 0
field mean 0
field stddev -nan
field sum 0
field sqrsum 0
field min 0
field max 0
attr interpolationmode  none
attr source  hopLimit
attr title  "hop limit, stats"
scalar WAVETest.node[35].nic.phy80211p 	busyTime 	0.00014219375381906
scalar WAVETest.node[35].nic.mac1609_4 	ReceivedUnicastPackets 	0
scalar WAVETest.node[35].nic.mac1609_4 	ReceivedBroadcasts 	148
scalar WAVETest.node[35].nic.mac1609_4 	SentPackets 	26
scalar WAVETest.node[35].nic.mac1609_4 	SNIRLostPackets 	0
scalar WAVETest.node[35].nic.mac1609_4 	RXTXLostPackets 	0
scalar WAVETest.node[35].nic.mac1609_4 	TotalLostPackets 	0
scalar WAVETest.node[35].nic.mac1609_4 	DroppedPacketsInMac 	0
scalar WAVETest.node[35].nic.mac1609_4 	TooLittleTime 	0
scalar WAVETest.node[35].nic.mac1609_4 	TimesIntoBackoff 	27
scalar WAVETest.node[35].nic.mac1609_4 	SlotsBackoff 	87
scalar WAVETest.node[35].nic.mac1609_4 	NumInternalContention 	0
scalar WAVETest.node[35].nic.mac1609_4 	totalBusyTime 	0.020905999826
scalar WAVETest.node[35].veinsmobility 	startTime 	175.1
scalar WAVETest.node[35].veinsmobility 	totalTime 	124.9
scalar WAVETest.node[35].veinsmobility 	stopTime 	300
scalar WAVETest.node[35].veinsmobility 	minSpeed 	0.4927537865995
scalar WAVETest.node[35].veinsmobility 	maxSpeed 	29.999905156146
scalar WAVETest.node[35].veinsmobility 	totalDistance 	3620.2927011722
scalar WAVETest.node[35].veinsmobility 	totalCO2Emission 	867.7115910948
scalar WAVETest.node[36].appl 	ReceivedUnicasts 	0
scalar WAVETest.node[36].appl 	ReceivedBroadcasts 	0
scalar WAVETest.node[36].appl 	SentUnicasts 	0
scalar WAVETest.node[36].appl 	SentBroadcasts 	0
statistic WAVETest.node[36].appl 	distance:stats
field count 0
field mean 0
field stddev -nan
field sum 0
field sqrsum 0
field min 0
field max 0
attr interpolationmode  none
attr source  distance
attr title  "distance, stats"
statistic WAVETest.node[36].appl 	delay:stats
field count 0
field mean 0
field stddev -nan
field sum 0
field sqrsum 0
field min 0
field max 0
attr interpolationmode  none
attr source  delay
attr title  "delay time, stats"
statistic WAVETest.node[36].appl 	hopLimit:stats
field count 0
field mean 0
field stddev -nan
field sum 0
field sqrsum 0
field min 0
field max 0
attr interpolationmode  none
attr source  hopLimit
attr title  "hop limit, stats"
scalar WAVETest.node[36].nic.phy80211p 	busyTime 	0.00014211843084237
scalar WAVETest.node[36].nic.mac1609_4 	ReceivedUnicastPackets 	0
scalar WAVETest.node[36].nic.mac1609_4 	ReceivedBroadcasts 	142
scalar WAVETest.node[36].nic.mac1609_4 	SentPackets 	25
scalar WAVETest.node[36].nic.mac1609_4 	SNIRLostPackets 	0
scalar WAVETest.node[36].nic.mac1609_4 	RXTXLostPackets 	0
scalar WAVETest.node[36].nic.mac1609_4 	TotalLostPackets 	0
scalar WAVETest.node[36].nic.mac1609_4 	DroppedPacketsInMac 	0
scalar WAVETest.node[36].nic.mac1609_4 	TooLittleTime 	0
scalar WAVETest.node[36].nic.mac1609_4 	TimesIntoBackoff 	27
scalar WAVETest.node[36].nic.mac1609_4 	SlotsBackoff 	70
scalar WAVETest.node[36].nic.mac1609_4 	NumInternalContention 	0
scalar WAVETest.node[36].nic.mac1609_4 	totalBusyTime 	0.020064999833
scalar WAVETest.node[36].veinsmobility 	startTime 	180.1
scalar WAVETest.node[36].veinsmobility 	totalTime 	119.9
scalar WAVETest.node[36].veinsmobility 	stopTime 	300
scalar WAVETest.node[36].veinsmobility 	minSpeed 	0.47842647814541
scalar WAVETest.node[36].veinsmobility 	maxSpeed 	29.999948032841
scalar WAVETest.node[36].veinsmobility 	totalDistance 	3469.1043147935
scalar WAVETest.node[36].veinsmobility 	totalCO2Emission 	843.65118323265
scalar WAVETest.node[37].appl 	ReceivedUnicasts 	0
scalar WAVETest.node[37].appl 	ReceivedBroadcasts 	0
scalar WAVETest.node[37].appl 	SentUnicasts 	0
scalar WAVETest.node[37].appl 	SentBroadcasts 	0
statistic WAVETest.node[37].appl 	distance:stats
field count 0
field mean 0
field stddev -nan
field sum 0
field sqrsum 0
field min 0
field max 0
attr interpolationmode  none
attr source  distance
attr title  "distance, stats"
statistic WAVETest.node[37].appl 	delay:stats
field count 0
field mean 0
field stddev -nan
field sum 0
field sqrsum 0
field min 0
field max 0
attr interpolationmode  none
attr source  delay
attr title  "delay time, stats"
statistic WAVETest.node[37].appl 	hopLimit:stats
field count 0
field mean 0
field stddev -nan
field sum 0
field sqrsum 0
field min 0
field max 0
attr interpolationmode  none
attr source  hopLimit
attr title  "hop limit, stats"
scalar WAVETest.node[37].nic.phy80211p 	busyTime 	0.00014203655234117
scalar WAVETest.node[37].nic.mac1609_4 	ReceivedUnicastPackets 	0
scalar WAVETest.node[37].nic.mac1609_4 	ReceivedBroadcasts 	136
scalar WAVETest.node[37].nic.mac1609_4 	SentPackets 	24
scalar WAVETest.node[37].nic.mac1609_4 	SNIRLostPackets 	0
scalar WAVETest.node[37].nic.mac1609_4 	RXTXLostPackets 	0
scalar WAVETest.node[37].nic.mac1609_4 	TotalLostPackets 	0
scalar WAVETest.node[37].nic.mac1609_4 	DroppedPacketsInMac 	0
scalar WAVETest.node[37].nic.mac1609_4 	TooLittleTime 	0
scalar WAVETest.node[37].nic.mac1609_4 	TimesIntoBackoff 	26
scalar WAVETest.node[37].nic.mac1609_4 	SlotsBackoff 	66
scalar WAVETest.node[37].nic.mac1609_4 	NumInternalContention 	0
scalar WAVETest.node[37].nic.mac1609_4 	totalBusyTime 	0.01922399984
scalar WAVETest.node[37].veinsmobility 	startTime 	185.1
scalar WAVETest.node[37].veinsmobility 	totalTime 	114.9
scalar WAVETest.node[37].veinsmobility 	stopTime 	300
scalar WAVETest.node[37].veinsmobility 	minSpeed 	0.47569799431367
scalar WAVETest.node[37].veinsmobility 	maxSpeed 	29.999764589942
scalar WAVETest.node[37].veinsmobility 	totalDistance 	3318.0790481422
scalar WAVETest.node[37].veinsmobility 	totalCO2Emission 	798.49680266305
scalar WAVETest.node[38].appl 	ReceivedUnicasts 	0
scalar WAVETest.node[38].appl 	ReceivedBroadcasts 	0
scalar WAVETest.node[38].appl 	SentUnicasts 	0
scalar WAVETest.node[38].appl 	SentBroadcasts 	0
statistic WAVETest.node[38].appl 	distance:stats
field count 0
field mean 0
field stddev -nan
field sum 0
field sqrsum 0
field min 0
field max 0
attr interpolationmode  none
attr source  distance
attr title  "distance, stats"
statistic WAVETest.node[38].appl 	delay:stats
field count 0
field mean 0
field stddev -nan
field sum 0
field sqrsum 0
field min 0
field max 0
attr interpolationmode  none
attr source  delay
attr title  "delay time, stats"
statistic WAVETest.node[38].appl 	hopLimit:stats
field count 0
field mean 0
field stddev -nan
field sum 0
field sqrsum 0
field min 0
field max 0
attr interpolationmode  none
attr source  hopLimit
attr title  "hop limit, stats"
scalar WAVETest.node[38].nic.phy80211p 	busyTime 	0.00014194722356688
scalar WAVETest.node[38].nic.mac1609_4 	ReceivedUnicastPackets 	0
scalar WAVETest.node[38].nic.mac1609_4 	ReceivedBroadcasts 	130
scalar WAVETest.node[38].nic.mac1609_4 	SentPackets 	23
scalar WAVETest.node[38].nic.mac1609_4 	SNIRLostPackets 	0
scalar WAVETest.node[38].nic.mac1609_4 	RXTXLostPackets 	0
scalar WAVETest.node[38].nic.mac1609_4 	TotalLostPackets 	0
scalar WAVETest.node[38].nic.mac1609_4 	DroppedPacketsInMac 	0
scalar WAVETest.node[38].nic.mac1609_4 	TooLittleTime 	0
scalar WAVETest.node[38].nic.mac1609_4 	TimesIntoBackoff 	23
scalar WAVETest.node[38].nic.mac1609_4 	SlotsBackoff 	70
scalar WAVETest.node[38].nic.mac1609_4 	NumInternalContention 	0
scalar WAVETest.node[38].nic.mac1609_4 	totalBusyTime 	0.018382999847
scalar WAVETest.node[38].veinsmobility 	startTime 	190.1
scalar WAVETest.node[38].veinsmobility 	totalTime 	109.9
scalar WAVETest.node[38].veinsmobility 	stopTime 	300
scalar WAVETest.node[38].veinsmobility 	minSpeed 	0.49911266479176
scalar WAVETest.node[38].veinsmobility 	maxSpeed 	29.999883420707
scalar WAVETest.node[38].veinsmobility 	totalDistance 	3166.8882539488
scalar WAVETest.node[38].veinsmobility 	totalCO2Emission 	758.02956401112
scalar WAVETest.node[39].appl 	ReceivedUnicasts 	0
scalar WAVETest.node[39].appl 	ReceivedBroadcasts 	0
scalar WAVETest.node[39].appl 	SentUnicasts 	0
scalar WAVETest.node[39].appl 	SentBroadcasts 	0
statistic WAVETest.node[39].appl 	distance:stats
field count 0
field mean 0
field stddev -nan
field sum 0
field sqrsum 0
field min 0
field max 0
attr interpolationmode  none
attr source  distance
attr title  "distance, stats"
statistic WAVETest.node[39].appl 	delay:stats
field count 0
field mean 0
field stddev -nan
field sum 0
field sqrsum 0
field min 0
field max 0
attr interpolationmode  none
attr source  delay
attr title  "delay time, stats"
statistic WAVETest.node[39].appl 	hopLimit:stats
field count 0
field mean 0
field stddev -nan
field sum 0
field sqrsum 0
field min 0
field max 0
attr interpolationmode  none
attr source  hopLimit
attr title  "hop limit, stats"
scalar WAVETest.node[39].nic.phy80211p 	busyTime 	0.00014184937918017
scalar WAVETest.node[39].nic.mac1609_4 	ReceivedUnicastPackets 	0
scalar WAVETest.node[39].nic.mac1609_4 	ReceivedBroadcasts 	124
scalar WAVETest.node[39].nic.mac1609_4 	SentPackets 	22
scalar WAVETest.node[39].nic.mac1609_4 	SNIRLostPackets 	0
scalar WAVETest.node[39].nic.mac1609_4 	RXTXLostPackets 	0
scalar WAVETest.node[39].nic.mac1609_4 	TotalLostPackets 	0
scalar WAVETest.node[39].nic.mac1609_4 	DroppedPacketsInMac 	0
scalar WAVETest.node[39].nic.mac1609_4 	TooLittleTime 	0
scalar WAVETest.node[39].nic.mac1609_4 	TimesIntoBackoff 	23
scalar WAVETest.node[39].nic.mac1609_4 	SlotsBackoff 	90
scalar WAVETest.node[39].nic.mac1609_4 	NumInternalContention 	0
scalar WAVETest.node[39].nic.mac1609_4 	totalBusyTime 	0.017541999854
scalar WAVETest.node[39].veinsmobility 	startTime 	195.1
scalar WAVETest.node[39].veinsmobility 	totalTime 	104.9
scalar WAVETest.node[39].veinsmobility 	stopTime 	300
scalar WAVETest.node[39].veinsmobility 	minSpeed 	0.48158819846576
scalar WAVETest.node[39].veinsmobility 	maxSpeed 	29.999919713358
scalar WAVETest.node[39].veinsmobility 	totalDistance 	3016.4087872224
scalar WAVETest.node[39].veinsmobility 	totalCO2Emission 	742.22793274707
scalar WAVETest.node[4].appl 	ReceivedUnicasts 	0
scalar WAVETest.node[4].appl 	ReceivedBroadcasts 	0
scalar WAVETest.node[4].appl 	SentUnicasts 	0
scalar WAVETest.node[4].appl 	SentBroadcasts 	0
statistic WAVETest.node[4].appl 	distance:stats
field count 0
field mean 0
field stddev -nan
field sum 0
field sqrsum 0
field min 0
field max 0
attr interpolationmode  none
attr source  distance
attr title  "distance, stats"
statistic WAVETest.node[4].appl 	delay:stats
field count 0
field mean 0
field stddev -nan
field sum 0
field sqrsum 0
field min 0
field max 0
attr interpolationmode  none
attr source  delay
attr title  "delay time, stats"
statistic WAVETest.node[4].appl 	hopLimit:stats
field count 0
field mean 0
field stddev -nan
field sum 0
field sqrsum 0
field min 0
field max 0
attr interpolationmode  none
attr source  hopLimit
attr title  "hop limit, stats"
scalar WAVETest.node[4].nic.phy80211p 	busyTime 	0.00017106109182208
scalar WAVETest.node[4].nic.mac1609_4 	ReceivedUnicastPackets 	0
scalar WAVETest.node[4].nic.mac1609_4 	ReceivedBroadcasts 	388
scalar WAVETest.node[4].nic.mac1609_4 	SentPackets 	57
scalar WAVETest.node[4].nic.mac1609_4 	SNIRLostPackets 	0
scalar WAVETest.node[4].nic.mac1609_4 	RXTXLostPackets 	0
scalar WAVETest.node[4].nic.mac1609_4 	TotalLostPackets 	0
scalar WAVETest.node[4].nic.mac1609_4 	DroppedPacketsInMac 	0
scalar WAVETest.node[4].nic.mac1609_4 	TooLittleTime 	0
scalar WAVETest.node[4].nic.mac1609_4 	TimesIntoBackoff 	58
scalar WAVETest.node[4].nic.mac1609_4 	SlotsBackoff 	184
scalar WAVETest.node[4].nic.mac1609_4 	NumInternalContention 	0
scalar WAVETest.node[4].nic.mac1609_4 	totalBusyTime 	0.059216999507
scalar WAVETest.node[4].veinsmobility 	startTime 	20.1
scalar WAVETest.node[4].veinsmobility 	totalTime 	279.9
scalar WAVETest.node[4].veinsmobility 	stopTime 	300
scalar WAVETest.node[4].veinsmobility 	minSpeed 	0.48086686868919
scalar WAVETest.node[4].veinsmobility 	maxSpeed 	29.999894108507
scalar WAVETest.node[4].veinsmobility 	totalDistance 	8251.6421575611
scalar WAVETest.node[4].veinsmobility 	totalCO2Emission 	1856.4503323788
scalar WAVETest.node[40].appl 	ReceivedUnicasts 	0
scalar WAVETest.node[40].appl 	ReceivedBroadcasts 	0
scalar WAVETest.node[40].appl 	SentUnicasts 	0
scalar WAVETest.node[40].appl 	SentBroadcasts 	0
statistic WAVETest.node[40].appl 	distance:stats
field count 0
field mean 0
field stddev -nan
field sum 0
field sqrsum 0
field min 0
field max 0
attr interpolationmode  none
attr source  distance
attr title  "distance, stats"
statistic WAVETest.node[40].appl 	delay:stats
field count 0
field mean 0
field stddev -nan
field sum 0
field sqrsum 0
field min 0
field max 0
attr interpolationmode  none
attr source  delay
attr title  "delay time, stats"
statistic WAVETest.node[40].appl 	hopLimit:stats
field count 0
field mean 0
field stddev -nan
field sum 0
field sqrsum 0
field min 0
field max 0
attr interpolationmode  none
attr source  hopLimit
attr title  "hop limit, stats"
scalar WAVETest.node[40].nic.phy80211p 	busyTime 	0.00014174174056056
scalar WAVETest.node[40].nic.mac1609_4 	ReceivedUnicastPackets 	0
scalar WAVETest.node[40].nic.mac1609_4 	ReceivedBroadcasts 	118
scalar WAVETest.node[40].nic.mac1609_4 	SentPackets 	21
scalar WAVETest.node[40].nic.mac1609_4 	SNIRLostPackets 	0
scalar WAVETest.node[40].nic.mac1609_4 	RXTXLostPackets 	0
scalar WAVETest.node[40].nic.mac1609_4 	TotalLostPackets 	0
scalar WAVETest.node[40].nic.mac1609_4 	DroppedPacketsInMac 	0
scalar WAVETest.node[40].nic.mac1609_4 	TooLittleTime 	0
scalar WAVETest.node[40].nic.mac1609_4 	TimesIntoBackoff 	21
scalar WAVETest.node[40].nic.mac1609_4 	SlotsBackoff 	71
scalar WAVETest.node[40].nic.mac1609_4 	NumInternalContention 	0
scalar WAVETest.node[40].nic.mac1609_4 	totalBusyTime 	0.016700999861
scalar WAVETest.node[40].veinsmobility 	startTime 	200.1
scalar WAVETest.node[40].veinsmobility 	totalTime 	99.9
scalar WAVETest.node[40].veinsmobility 	stopTime 	300
scalar WAVETest.node[40].veinsmobility 	minSpeed 	0.48323781347717
scalar WAVETest.node[40].veinsmobility 	maxSpeed 	29.99991376343
scalar WAVETest.node[40].veinsmobility 	totalDistance 	2869.9306216305
scalar WAVETest.node[40].veinsmobility 	totalCO2Emission 	714.55557740128
scalar WAVETest.node[41].appl 	ReceivedUnicasts 	0
scalar WAVETest.node[41].appl 	ReceivedBroadcasts 	0
scalar WAVETest.node[41].appl 	SentUnicasts 	0
scalar WAVETest.node[41].appl 	SentBroadcasts 	0
statistic WAVETest.node[41].appl 	distance:stats
field count 0
field mean 0
field stddev -nan
field sum 0
field sqrsum 0
field min 0
field max 0
attr interpolationmode  none
attr source  distance
attr title  "distance, stats"
statistic WAVETest.node[41].appl 	delay:stats
field count 0
field mean 0
field stddev -nan
field sum 0
field sqrsum 0
field min 0
field max 0
attr interpolationmode  none
attr source  delay
attr title  "delay time, stats"
statistic WAVETest.node[41].appl 	hopLimit:stats
field count 0
field mean 0
field stddev -nan
field sum 0
field sqrsum 0
field min 0
field max 0
attr interpolationmode  none
attr source  hopLimit
attr title  "hop limit, stats"
scalar WAVETest.node[41].nic.phy80211p 	busyTime 	0.00014162275962065
scalar WAVETest.node[41].nic.mac1609_4 	ReceivedUnicastPackets 	0
scalar WAVETest.node[41].nic.mac1609_4 	ReceivedBroadcasts 	112
scalar WAVETest.node[41].nic.mac1609_4 	SentPackets 	20
scalar WAVETest.node[41].nic.mac1609_4 	SNIRLostPackets 	0
scalar WAVETest.node[41].nic.mac1609_4 	RXTXLostPackets 	0
scalar WAVETest.node[41].nic.mac1609_4 	TotalLostPackets 	0
scalar WAVETest.node[41].nic.mac1609_4 	DroppedPacketsInMac 	0
scalar WAVETest.node[41].nic.mac1609_4 	TooLittleTime 	0
scalar WAVETest.node[41].nic.mac1609_4 	TimesIntoBackoff 	21
scalar WAVETest.node[41].nic.mac1609_4 	SlotsBackoff 	67
scalar WAVETest.node[41].nic.mac1609_4 	NumInternalContention 	0
scalar WAVETest.node[41].nic.mac1609_4 	totalBusyTime 	0.015859999868
scalar WAVETest.node[41].veinsmobility 	startTime 	205.1
scalar WAVETest.node[41].veinsmobility 	totalTime 	94.9
scalar WAVETest.node[41].veinsmobility 	stopTime 	300
scalar WAVETest.node[41].veinsmobility 	minSpeed 	0.49912786006462
scalar WAVETest.node[41].veinsmobility 	maxSpeed 	29.99978435511
scalar WAVETest.node[41].veinsmobility 	totalDistance 	2719.4071210215
scalar WAVETest.node[41].veinsmobility 	totalCO2Emission 	665.99160492995
scalar WAVETest.node[42].appl 	ReceivedUnicasts 	0
scalar WAVETest.node[42].appl 	ReceivedBroadcasts 	0
scalar WAVETest.node[42].appl 	SentUnicasts 	0
scalar WAVETest.node[42].appl 	SentBroadcasts 	0
statistic WAVETest.node[42].appl 	distance:stats
field count 0
field mean 0
field stddev -nan
field sum 0
field sqrsum 0
field min 0
field max 0
attr interpolationmode  none
attr source  distance
attr title  "distance, stats"
statistic WAVETest.node[42].appl 	delay:stats
field count 0
field mean 0
field stddev -nan
field sum 0
field sqrsum 0
field min 0
field max 0
attr interpolationmode  none
attr source  delay
attr title  "delay time, stats"
statistic WAVETest.node[42].appl 	hopLimit:stats
field count 0
field mean 0
field stddev -nan
field sum 0
field sqrsum 0
field min 0
field max 0
attr interpolationmode  none
attr source  hopLimit
[...]
scalar WAVETest.node[45].nic.mac1609_4 	RXTXLostPackets 	0
scalar WAVETest.node[45].nic.mac1609_4 	TotalLostPackets 	0
scalar WAVETest.node[45].nic.mac1609_4 	DroppedPacketsInMac 	0
scalar WAVETest.node[45].nic.mac1609_4 	TooLittleTime 	0
scalar WAVETest.node[45].nic.mac1609_4 	TimesIntoBackoff 	16
scalar WAVETest.node[45].nic.mac1609_4 	SlotsBackoff 	39
scalar WAVETest.node[45].nic.mac1609_4 	NumInternalContention 	0
scalar WAVETest.node[45].nic.mac1609_4 	totalBusyTime 	0.012495999896
scalar WAVETest.node[45].veinsmobility 	startTime 	225.1
scalar WAVETest.node[45].veinsmobility 	totalTime 	74.9
scalar WAVETest.node[45].veinsmobility 	stopTime 	300
scalar WAVETest.node[45].veinsmobility 	minSpeed 	0.48014957677806
scalar WAVETest.node[45].veinsmobility 	maxSpeed 	29.998617051402
scalar WAVETest.node[45].veinsmobility 	totalDistance 	2125.1838450751
scalar WAVETest.node[45].veinsmobility 	totalCO2Emission 	550.6765445202
scalar WAVETest.node[46].appl 	ReceivedUnicasts 	0
scalar WAVETest.node[46].appl 	ReceivedBroadcasts 	0
scalar WAVETest.node[46].appl 	SentUnicasts 	0
scalar WAVETest.node[46].appl 	SentBroadcasts 	0
statistic WAVETest.node[46].appl 	distance:stats
field count 0
field mean 0
field stddev -nan
field sum 0
field sqrsum 0
field min 0
field max 0
attr interpolationmode  none
attr source  distance
attr title  "distance, stats"
statistic WAVETest.node[46].appl 	delay:stats
field count 0
field mean 0
field stddev -nan
field sum 0
field sqrsum 0
field min 0
field max 0
attr interpolationmode  none
attr source  delay
attr title  "delay time, stats"
statistic WAVETest.node[46].appl 	hopLimit:stats
field count 0
field mean 0
field stddev -nan
field sum 0
field sqrsum 0
field min 0
field max 0
attr interpolationmode  none
attr source  hopLimit
attr title  "hop limit, stats"
scalar WAVETest.node[46].nic.phy80211p 	busyTime 	0.00014077253101574
scalar WAVETest.node[46].nic.mac1609_4 	ReceivedUnicastPackets 	0
scalar WAVETest.node[46].nic.mac1609_4 	ReceivedBroadcasts 	82
scalar WAVETest.node[46].nic.mac1609_4 	SentPackets 	15
scalar WAVETest.node[46].nic.mac1609_4 	SNIRLostPackets 	0
scalar WAVETest.node[46].nic.mac1609_4 	RXTXLostPackets 	0
scalar WAVETest.node[46].nic.mac1609_4 	TotalLostPackets 	0
scalar WAVETest.node[46].nic.mac1609_4 	DroppedPacketsInMac 	0
scalar WAVETest.node[46].nic.mac1609_4 	TooLittleTime 	0
scalar WAVETest.node[46].nic.mac1609_4 	TimesIntoBackoff 	16
scalar WAVETest.node[46].nic.mac1609_4 	SlotsBackoff 	55
scalar WAVETest.node[46].nic.mac1609_4 	NumInternalContention 	0
scalar WAVETest.node[46].nic.mac1609_4 	totalBusyTime 	0.011654999903
scalar WAVETest.node[46].veinsmobility 	startTime 	230.1
scalar WAVETest.node[46].veinsmobility 	totalTime 	69.9
scalar WAVETest.node[46].veinsmobility 	stopTime 	300
scalar WAVETest.node[46].veinsmobility 	minSpeed 	0.49602903273772
scalar WAVETest.node[46].veinsmobility 	maxSpeed 	29.999738998304
scalar WAVETest.node[46].veinsmobility 	totalDistance 	1975.3215072402
scalar WAVETest.node[46].veinsmobility 	totalCO2Emission 	529.70088496362
scalar WAVETest.node[47].appl 	ReceivedUnicasts 	0
scalar WAVETest.node[47].appl 	ReceivedBroadcasts 	0
scalar WAVETest.node[47].appl 	SentUnicasts 	0
scalar WAVETest.node[47].appl 	SentBroadcasts 	0
statistic WAVETest.node[47].appl 	distance:stats
field count 0
field mean 0
field stddev -nan
field sum 0
field sqrsum 0
field min 0
field max 0
attr interpolationmode  none
attr source  distance
attr title  "distance, stats"
statistic WAVETest.node[47].appl 	delay:stats
field count 0
field mean 0
field stddev -nan
field sum 0
field sqrsum 0
field min 0
field max 0
attr interpolationmode  none
attr source  delay
attr title  "delay time, stats"
statistic WAVETest.node[47].appl 	hopLimit:stats
field count 0
field mean 0
field stddev -nan
field sum 0
field sqrsum 0
field min 0
field max 0
attr interpolationmode  none
attr source  hopLimit
attr title  "hop limit, stats"
scalar WAVETest.node[47].nic.phy80211p 	busyTime 	0.00012018489884438
scalar WAVETest.node[47].nic.mac1609_4 	ReceivedUnicastPackets 	0
scalar WAVETest.node[47].nic.mac1609_4 	ReceivedBroadcasts 	65
scalar WAVETest.node[47].nic.mac1609_4 	SentPackets 	14
scalar WAVETest.node[47].nic.mac1609_4 	SNIRLostPackets 	0
scalar WAVETest.node[47].nic.mac1609_4 	RXTXLostPackets 	0
scalar WAVETest.node[47].nic.mac1609_4 	TotalLostPackets 	0
scalar WAVETest.node[47].nic.mac1609_4 	DroppedPacketsInMac 	0
scalar WAVETest.node[47].nic.mac1609_4 	TooLittleTime 	0
scalar WAVETest.node[47].nic.mac1609_4 	TimesIntoBackoff 	16
scalar WAVETest.node[47].nic.mac1609_4 	SlotsBackoff 	30
scalar WAVETest.node[47].nic.mac1609_4 	NumInternalContention 	0
scalar WAVETest.node[47].nic.mac1609_4 	totalBusyTime 	0.009493999921
scalar WAVETest.node[47].veinsmobility 	startTime 	235.1
scalar WAVETest.node[47].veinsmobility 	totalTime 	64.9
scalar WAVETest.node[47].veinsmobility 	stopTime 	300
scalar WAVETest.node[47].veinsmobility 	minSpeed 	0.49319334667525
scalar WAVETest.node[47].veinsmobility 	maxSpeed 	29.999745248235
scalar WAVETest.node[47].veinsmobility 	totalDistance 	1825.296080276
scalar WAVETest.node[47].veinsmobility 	totalCO2Emission 	484.83904805509
scalar WAVETest.node[48].appl 	ReceivedUnicasts 	0
scalar WAVETest.node[48].appl 	ReceivedBroadcasts 	0
scalar WAVETest.node[48].appl 	SentUnicasts 	0
scalar WAVETest.node[48].appl 	SentBroadcasts 	0
statistic WAVETest.node[48].appl 	distance:stats
field count 0
field mean 0
field stddev -nan
field sum 0
field sqrsum 0
field min 0
field max 0
attr interpolationmode  none
attr source  distance
attr title  "distance, stats"
statistic WAVETest.node[48].appl 	delay:stats
field count 0
field mean 0
field stddev -nan
field sum 0
field sqrsum 0
field min 0
field max 0
attr interpolationmode  none
attr source  delay
attr title  "delay time, stats"
statistic WAVETest.node[48].appl 	hopLimit:stats
field count 0
field mean 0
field stddev -nan
field sum 0
field sqrsum 0
field min 0
field max 0
attr interpolationmode  none
attr source  hopLimit
attr title  "hop limit, stats"
scalar WAVETest.node[48].nic.phy80211p 	busyTime 	9.8163605191987e-05
scalar WAVETest.node[48].nic.mac1609_4 	ReceivedUnicastPackets 	0
scalar WAVETest.node[48].nic.mac1609_4 	ReceivedBroadcasts 	49
scalar WAVETest.node[48].nic.mac1609_4 	SentPackets 	13
scalar WAVETest.node[48].nic.mac1609_4 	SNIRLostPackets 	0
scalar WAVETest.node[48].nic.mac1609_4 	RXTXLostPackets 	0
scalar WAVETest.node[48].nic.mac1609_4 	TotalLostPackets 	0
scalar WAVETest.node[48].nic.mac1609_4 	DroppedPacketsInMac 	0
scalar WAVETest.node[48].nic.mac1609_4 	TooLittleTime 	0
scalar WAVETest.node[48].nic.mac1609_4 	TimesIntoBackoff 	13
scalar WAVETest.node[48].nic.mac1609_4 	SlotsBackoff 	38
scalar WAVETest.node[48].nic.mac1609_4 	NumInternalContention 	0
scalar WAVETest.node[48].nic.mac1609_4 	totalBusyTime 	0.007452999938
scalar WAVETest.node[48].veinsmobility 	startTime 	240.1
scalar WAVETest.node[48].veinsmobility 	totalTime 	59.9
scalar WAVETest.node[48].veinsmobility 	stopTime 	300
scalar WAVETest.node[48].veinsmobility 	minSpeed 	0.48129653597716
scalar WAVETest.node[48].veinsmobility 	maxSpeed 	29.999821180769
scalar WAVETest.node[48].veinsmobility 	totalDistance 	1678.630608125
scalar WAVETest.node[48].veinsmobility 	totalCO2Emission 	467.50083345689
scalar WAVETest.node[49].appl 	ReceivedUnicasts 	0
scalar WAVETest.node[49].appl 	ReceivedBroadcasts 	0
scalar WAVETest.node[49].appl 	SentUnicasts 	0
scalar WAVETest.node[49].appl 	SentBroadcasts 	0
statistic WAVETest.node[49].appl 	distance:stats
field count 0
field mean 0
field stddev -nan
field sum 0
field sqrsum 0
field min 0
field max 0
attr interpolationmode  none
attr source  distance
attr title  "distance, stats"
statistic WAVETest.node[49].appl 	delay:stats
field count 0
field mean 0
field stddev -nan
field sum 0
field sqrsum 0
field min 0
field max 0
attr interpolationmode  none
attr source  delay
attr title  "delay time, stats"
statistic WAVETest.node[49].appl 	hopLimit:stats
field count 0
field mean 0
field stddev -nan
field sum 0
field sqrsum 0
field min 0
field max 0
attr interpolationmode  none
attr source  hopLimit
attr title  "hop limit, stats"
scalar WAVETest.node[49].nic.phy80211p 	busyTime 	7.4316939271403e-05
scalar WAVETest.node[49].nic.mac1609_4 	ReceivedUnicastPackets 	0
scalar WAVETest.node[49].nic.mac1609_4 	ReceivedBroadcasts 	34
scalar WAVETest.node[49].nic.mac1609_4 	SentPackets 	12
scalar WAVETest.node[49].nic.mac1609_4 	SNIRLostPackets 	0
scalar WAVETest.node[49].nic.mac1609_4 	RXTXLostPackets 	0
scalar WAVETest.node[49].nic.mac1609_4 	TotalLostPackets 	0
scalar WAVETest.node[49].nic.mac1609_4 	DroppedPacketsInMac 	0
scalar WAVETest.node[49].nic.mac1609_4 	TooLittleTime 	0
scalar WAVETest.node[49].nic.mac1609_4 	TimesIntoBackoff 	13
scalar WAVETest.node[49].nic.mac1609_4 	SlotsBackoff 	49
scalar WAVETest.node[49].nic.mac1609_4 	NumInternalContention 	0
scalar WAVETest.node[49].nic.mac1609_4 	totalBusyTime 	0.005531999954
scalar WAVETest.node[49].veinsmobility 	startTime 	245.1
scalar WAVETest.node[49].veinsmobility 	totalTime 	54.9
scalar WAVETest.node[49].veinsmobility 	stopTime 	300
scalar WAVETest.node[49].veinsmobility 	minSpeed 	0.49631567383185
scalar WAVETest.node[49].veinsmobility 	maxSpeed 	29.999785426597
scalar WAVETest.node[49].veinsmobility 	totalDistance 	1528.8074995784
scalar WAVETest.node[49].veinsmobility 	totalCO2Emission 	431.34094367288
scalar WAVETest.node[5].appl 	ReceivedUnicasts 	0
scalar WAVETest.node[5].appl 	ReceivedBroadcasts 	0
scalar WAVETest.node[5].appl 	SentUnicasts 	0
scalar WAVETest.node[5].appl 	SentBroadcasts 	0
statistic WAVETest.node[5].appl 	distance:stats
field count 0
field mean 0
field stddev -nan
field sum 0
field sqrsum 0
field min 0
field max 0
attr interpolationmode  none
attr source  distance
attr title  "distance, stats"
statistic WAVETest.node[5].appl 	delay:stats
field count 0
field mean 0
field stddev -nan
field sum 0
field sqrsum 0
field min 0
field max 0
attr interpolationmode  none
attr source  delay
attr title  "delay time, stats"
statistic WAVETest.node[5].appl 	hopLimit:stats
field count 0
field mean 0
field stddev -nan
field sum 0
field sqrsum 0
field min 0
field max 0
attr interpolationmode  none
attr source  hopLimit
attr title  "hop limit, stats"
scalar WAVETest.node[5].nic.phy80211p 	busyTime 	0.00017853764856675
scalar WAVETest.node[5].nic.mac1609_4 	ReceivedUnicastPackets 	19
scalar WAVETest.node[5].nic.mac1609_4 	ReceivedBroadcasts 	378
scalar WAVETest.node[5].nic.mac1609_4 	SentPackets 	94
scalar WAVETest.node[5].nic.mac1609_4 	SNIRLostPackets 	0
scalar WAVETest.node[5].nic.mac1609_4 	RXTXLostPackets 	0
scalar WAVETest.node[5].nic.mac1609_4 	TotalLostPackets 	0
scalar WAVETest.node[5].nic.mac1609_4 	DroppedPacketsInMac 	0
scalar WAVETest.node[5].nic.mac1609_4 	TooLittleTime 	0
scalar WAVETest.node[5].nic.mac1609_4 	TimesIntoBackoff 	99
scalar WAVETest.node[5].nic.mac1609_4 	SlotsBackoff 	318
scalar WAVETest.node[5].nic.mac1609_4 	NumInternalContention 	0
scalar WAVETest.node[5].nic.mac1609_4 	totalBusyTime 	0.062013999484
scalar WAVETest.node[5].veinsmobility 	startTime 	25.1
scalar WAVETest.node[5].veinsmobility 	totalTime 	274.9
scalar WAVETest.node[5].veinsmobility 	stopTime 	300
scalar WAVETest.node[5].veinsmobility 	minSpeed 	0.49417836313369
scalar WAVETest.node[5].veinsmobility 	maxSpeed 	29.999944916635
scalar WAVETest.node[5].veinsmobility 	totalDistance 	8103.4134910305
scalar WAVETest.node[5].veinsmobility 	totalCO2Emission 	1823.1012538977
scalar WAVETest.node[6].appl 	ReceivedUnicasts 	0
scalar WAVETest.node[6].appl 	ReceivedBroadcasts 	0
scalar WAVETest.node[6].appl 	SentUnicasts 	0
scalar WAVETest.node[6].appl 	SentBroadcasts 	0
statistic WAVETest.node[6].appl 	distance:stats
field count 0
field mean 0
field stddev -nan
field sum 0
field sqrsum 0
field min 0
field max 0
attr interpolationmode  none
attr source  distance
attr title  "distance, stats"
statistic WAVETest.node[6].appl 	delay:stats
field count 0
field mean 0
field stddev -nan
field sum 0
field sqrsum 0
field min 0
field max 0
attr interpolationmode  none
attr source  delay
attr title  "delay time, stats"
statistic WAVETest.node[6].appl 	hopLimit:stats
field count 0
field mean 0
field stddev -nan
field sum 0
field sqrsum 0
field min 0
field max 0
attr interpolationmode  none
attr source  hopLimit
attr title  "hop limit, stats"
scalar WAVETest.node[6].nic.phy80211p 	busyTime 	0.00016406076187847
scalar WAVETest.node[6].nic.mac1609_4 	ReceivedUnicastPackets 	0
scalar WAVETest.node[6].nic.mac1609_4 	ReceivedBroadcasts 	362
scalar WAVETest.node[6].nic.mac1609_4 	SentPackets 	55
scalar WAVETest.node[6].nic.mac1609_4 	SNIRLostPackets 	0
scalar WAVETest.node[6].nic.mac1609_4 	RXTXLostPackets 	0
scalar WAVETest.node[6].nic.mac1609_4 	TotalLostPackets 	0
scalar WAVETest.node[6].nic.mac1609_4 	DroppedPacketsInMac 	0
scalar WAVETest.node[6].nic.mac1609_4 	TooLittleTime 	0
scalar WAVETest.node[6].nic.mac1609_4 	TimesIntoBackoff 	55
scalar WAVETest.node[6].nic.mac1609_4 	SlotsBackoff 	177
scalar WAVETest.node[6].nic.mac1609_4 	NumInternalContention 	0
scalar WAVETest.node[6].nic.mac1609_4 	totalBusyTime 	0.054174999549
scalar WAVETest.node[6].veinsmobility 	startTime 	30.1
scalar WAVETest.node[6].veinsmobility 	totalTime 	269.9
scalar WAVETest.node[6].veinsmobility 	stopTime 	300
scalar WAVETest.node[6].veinsmobility 	minSpeed 	0.49776263639797
scalar WAVETest.node[6].veinsmobility 	maxSpeed 	29.999556903203
scalar WAVETest.node[6].veinsmobility 	totalDistance 	7948.7890779846
scalar WAVETest.node[6].veinsmobility 	totalCO2Emission 	1789.5064844346
scalar WAVETest.node[7].appl 	ReceivedUnicasts 	0
scalar WAVETest.node[7].appl 	ReceivedBroadcasts 	0
scalar WAVETest.node[7].appl 	SentUnicasts 	0
scalar WAVETest.node[7].appl 	SentBroadcasts 	0
statistic WAVETest.node[7].appl 	distance:stats
field count 0
field mean 0
field stddev -nan
field sum 0
field sqrsum 0
field min 0
field max 0
attr interpolationmode  none
attr source  distance
attr title  "distance, stats"
statistic WAVETest.node[7].appl 	delay:stats
field count 0
field mean 0
field stddev -nan
field sum 0
field sqrsum 0
field min 0
field max 0
attr interpolationmode  none
attr source  delay
attr title  "delay time, stats"
statistic WAVETest.node[7].appl 	hopLimit:stats
field count 0
field mean 0
field stddev -nan
field sum 0
field sqrsum 0
field min 0
field max 0
attr interpolationmode  none
attr source  hopLimit
attr title  "hop limit, stats"
scalar WAVETest.node[7].nic.phy80211p 	busyTime 	0.0001644394097282
scalar WAVETest.node[7].nic.mac1609_4 	ReceivedUnicastPackets 	0
scalar WAVETest.node[7].nic.mac1609_4 	ReceivedBroadcasts 	356
scalar WAVETest.node[7].nic.mac1609_4 	SentPackets 	54
scalar WAVETest.node[7].nic.mac1609_4 	SNIRLostPackets 	0
scalar WAVETest.node[7].nic.mac1609_4 	RXTXLostPackets 	0
scalar WAVETest.node[7].nic.mac1609_4 	TotalLostPackets 	0
scalar WAVETest.node[7].nic.mac1609_4 	DroppedPacketsInMac 	0
scalar WAVETest.node[7].nic.mac1609_4 	TooLittleTime 	0
scalar WAVETest.node[7].nic.mac1609_4 	TimesIntoBackoff 	55
scalar WAVETest.node[7].nic.mac1609_4 	SlotsBackoff 	213
scalar WAVETest.node[7].nic.mac1609_4 	NumInternalContention 	0
scalar WAVETest.node[7].nic.mac1609_4 	totalBusyTime 	0.053333999556
scalar WAVETest.node[7].veinsmobility 	startTime 	35.1
scalar WAVETest.node[7].veinsmobility 	totalTime 	264.9
scalar WAVETest.node[7].veinsmobility 	stopTime 	300
scalar WAVETest.node[7].veinsmobility 	minSpeed 	0.49313562375028
scalar WAVETest.node[7].veinsmobility 	maxSpeed 	29.99998485751
scalar WAVETest.node[7].veinsmobility 	totalDistance 	7805.2855917456
scalar WAVETest.node[7].veinsmobility 	totalCO2Emission 	1758.7230242545
scalar WAVETest.node[8].appl 	ReceivedUnicasts 	0
scalar WAVETest.node[8].appl 	ReceivedBroadcasts 	0
scalar WAVETest.node[8].appl 	SentUnicasts 	0
scalar WAVETest.node[8].appl 	SentBroadcasts 	0
statistic WAVETest.node[8].appl 	distance:stats
field count 0
field mean 0
field stddev -nan
field sum 0
field sqrsum 0
field min 0
field max 0
attr interpolationmode  none
attr source  distance
attr title  "distance, stats"
statistic WAVETest.node[8].appl 	delay:stats
field count 0
field mean 0
field stddev -nan
field sum 0
field sqrsum 0
field min 0
field max 0
attr interpolationmode  none
attr source  delay
attr title  "delay time, stats"
statistic WAVETest.node[8].appl 	hopLimit:stats
field count 0
field mean 0
field stddev -nan
field sum 0
field sqrsum 0
field min 0
field max 0
attr interpolationmode  none
attr source  hopLimit
attr title  "hop limit, stats"
scalar WAVETest.node[8].nic.phy80211p 	busyTime 	0.00016991150300885
scalar WAVETest.node[8].nic.mac1609_4 	ReceivedUnicastPackets 	15
scalar WAVETest.node[8].nic.mac1609_4 	ReceivedBroadcasts 	344
scalar WAVETest.node[8].nic.mac1609_4 	SentPackets 	83
scalar WAVETest.node[8].nic.mac1609_4 	SNIRLostPackets 	0
scalar WAVETest.node[8].nic.mac1609_4 	RXTXLostPackets 	0
scalar WAVETest.node[8].nic.mac1609_4 	TotalLostPackets 	0
scalar WAVETest.node[8].nic.mac1609_4 	DroppedPacketsInMac 	0
scalar WAVETest.node[8].nic.mac1609_4 	TooLittleTime 	0
scalar WAVETest.node[8].nic.mac1609_4 	TimesIntoBackoff 	154
scalar WAVETest.node[8].nic.mac1609_4 	SlotsBackoff 	304
scalar WAVETest.node[8].nic.mac1609_4 	NumInternalContention 	0
scalar WAVETest.node[8].nic.mac1609_4 	totalBusyTime 	0.054682999545
scalar WAVETest.node[8].veinsmobility 	startTime 	40.1
scalar WAVETest.node[8].veinsmobility 	totalTime 	259.9
scalar WAVETest.node[8].veinsmobility 	stopTime 	300
scalar WAVETest.node[8].veinsmobility 	minSpeed 	0.47809932876844
scalar WAVETest.node[8].veinsmobility 	maxSpeed 	29.999981886649
scalar WAVETest.node[8].veinsmobility 	totalDistance 	7651.3689974293
scalar WAVETest.node[8].veinsmobility 	totalCO2Emission 	1703.5947726952
scalar WAVETest.node[9].appl 	ReceivedUnicasts 	0
scalar WAVETest.node[9].appl 	ReceivedBroadcasts 	0
scalar WAVETest.node[9].appl 	SentUnicasts 	0
scalar WAVETest.node[9].appl 	SentBroadcasts 	0
statistic WAVETest.node[9].appl 	distance:stats
field count 0
field mean 0
field stddev -nan
field sum 0
field sqrsum 0
field min 0
field max 0
attr interpolationmode  none
attr source  distance
attr title  "distance, stats"
statistic WAVETest.node[9].appl 	delay:stats
field count 0
field mean 0
field stddev -nan
field sum 0
field sqrsum 0
field min 0
field max 0
attr interpolationmode  none
attr source  delay
attr title  "delay time, stats"
statistic WAVETest.node[9].appl 	hopLimit:stats
field count 0
field mean 0
field stddev -nan
field sum 0
field sqrsum 0
field min 0
field max 0
attr interpolationmode  none
attr source  hopLimit
attr title  "hop limit, stats"
scalar WAVETest.node[9].nic.phy80211p 	busyTime 	0.00015865044983523
scalar WAVETest.node[9].nic.mac1609_4 	ReceivedUnicastPackets 	0
scalar WAVETest.node[9].nic.mac1609_4 	ReceivedBroadcasts 	334
scalar WAVETest.node[9].nic.mac1609_4 	SentPackets 	52
scalar WAVETest.node[9].nic.mac1609_4 	SNIRLostPackets 	0
scalar WAVETest.node[9].nic.mac1609_4 	RXTXLostPackets 	0
scalar WAVETest.node[9].nic.mac1609_4 	TotalLostPackets 	0
scalar WAVETest.node[9].nic.mac1609_4 	DroppedPacketsInMac 	0
scalar WAVETest.node[9].nic.mac1609_4 	TooLittleTime 	0
scalar WAVETest.node[9].nic.mac1609_4 	TimesIntoBackoff 	52
scalar WAVETest.node[9].nic.mac1609_4 	SlotsBackoff 	199
scalar WAVETest.node[9].nic.mac1609_4 	NumInternalContention 	0
scalar WAVETest.node[9].nic.mac1609_4 	totalBusyTime 	0.04925199959
scalar WAVETest.node[9].veinsmobility 	startTime 	45.1
scalar WAVETest.node[9].veinsmobility 	totalTime 	254.9
scalar WAVETest.node[9].veinsmobility 	stopTime 	300
scalar WAVETest.node[9].veinsmobility 	minSpeed 	0.48096408257843
scalar WAVETest.node[9].veinsmobility 	maxSpeed 	29.999834295479
scalar WAVETest.node[9].veinsmobility 	totalDistance 	7508.258692627
scalar WAVETest.node[9].veinsmobility 	totalCO2Emission 	1679.9687709678
